5
 energy: -5.483643447711 gnorm: 0.000994758777 xtb: 6.2.2 (9d81278992624c895f80dd42a50cac0aa55982e2)
C        -0.05498619118067   -0.00559222955303   -0.00084300369433
C         1.38216224675906    0.14057510616408    0.02119636233973
H        -0.35990272910044   -0.74252948086607   -0.75962729224324
H        -0.54038401375432    0.95342331738853   -0.23850327488027
H        -0.42688931271490   -0.34587571313177    0.97777820847637
