5
 energy: -7.222805080194 gnorm: 0.000825619113 xtb: 6.2.2 (9d81278992624c895f80dd42a50cac0aa55982e2)
C        -0.00508001020615    0.00824591219619   -0.10585690352419
C         1.14965560195181   -0.34106778502257   -0.50862241976571
C        -1.23982949019653   -0.21023131251306    0.18432570602296
H         2.10067346126328    0.10504251928318   -0.66629210325209
H        -2.00542147034184    0.43800871230664    0.54998172052495
