4
 energy: -5.029428724985 gnorm: 0.000337344390 xtb: 6.2.2 (9d81278992624c895f80dd42a50cac0aa55982e2)
C        -0.02768441846424    0.00176802166392   -0.00064717399154
C         1.25262021382666   -0.07996947782792    0.01613140468169
H        -0.55353666942326    0.96256833423213   -0.00583411869299
H        -0.67139912593917   -0.88436687806812   -0.00965011199715
