5
 energy: -10.199165118191 gnorm: 0.000718623822 xtb: 6.2.2 (9d81278992624c895f80dd42a50cac0aa55982e2)
C        -0.77389185175686   -1.30865255001795   -1.21876906452780
C        -0.22018120880361   -0.48243327779790   -0.42772558405302
C         0.09640182827396   -0.17504640145797    0.98880508062455
C         0.35928651909204    1.17659497239200    0.98373734196078
C         0.53838471319971    0.78953825688182   -0.32604777400625
