5
 energy: -11.183185519572 gnorm: 0.000982907800 xtb: 6.2.2 (9d81278992624c895f80dd42a50cac0aa55982e2)
N        -2.17602322967422   -0.28306189310520   -1.18624780510240
C        -1.16291237811174   -0.14909790063510   -0.63193835481979
C         2.23905276587885    0.28747424985746    1.21351342599130
C        -0.00187975548656    0.00082337858797   -0.00005422314654
C         1.10176159739373    0.14386216530009    0.60472695708105
