5
 energy: -8.621211987208 gnorm: 0.000964423369 xtb: 6.2.2 (9d81278992624c895f80dd42a50cac0aa55982e2)
C         0.73096214417626    0.13476157379752   -0.02846542287190
C        -0.66370001393186   -0.11542372687007    0.03082232777398
C        -0.10322890412873    1.21097402840120   -0.23314117298330
C        -1.67262903718616   -0.94917046085872    0.19277004098890
H         1.70859581107048   -0.28114141446992    0.03801422709232
