5
 energy: -8.624456242035 gnorm: 0.000942255641 xtb: 6.2.2 (9d81278992624c895f80dd42a50cac0aa55982e2)
C        -1.21435858933143    1.23156994974237    0.19602909253935
C        -0.53197488524777    0.06614297505179    0.02687130566511
C         0.83661856737153   -0.03895708065618    0.03829289558735
C         2.01900521512866   -0.40969720286688   -0.09648185075158
H        -1.10929030792099   -0.84905864127111   -0.16471144304022
