4
 energy: -10.207883165427 gnorm: 0.001559031954 xtb: 6.2.2 (9d81278992624c895f80dd42a50cac0aa55982e2)
C         1.84218341837885   -0.03080250289346    0.10118356410191
C         0.62664840991444   -0.04073290500614   -0.16461830447710
C        -0.66040422355126    0.04783043406989    0.14953546092669
O        -1.80842760474551    0.02370497382798   -0.08610172055149
