4
 energy: -8.983449084051 gnorm: 0.000630434419 xtb: 6.2.2 (9d81278992624c895f80dd42a50cac0aa55982e2)
C        -0.89963021107462    0.02256695014169   -0.15159977392811
C         0.01767657091727   -0.96511435367677    0.25340316575284
C         0.85582974225018    0.01139467597817   -0.31662407731102
N         0.02612389790716    0.93115272755691    0.21482068548630
