4
 energy: -10.312362209839 gnorm: 0.000664916849 xtb: 6.2.2 (9d81278992624c895f80dd42a50cac0aa55982e2)
C        -1.79508793763532    0.55749593095956   -0.07429311591682
C         0.64689987315329   -0.20031578758669    0.02663337538564
C        -0.59152302458026    0.18410549550691   -0.02443047071925
O         1.73971108906230   -0.54128563887977    0.07209021125043
