5
 energy: -11.070878229452 gnorm: 0.000554877887 xtb: 6.2.2 (9d81278992624c895f80dd42a50cac0aa55982e2)
C        -1.08837470576552   -0.03225508176837    0.02197926851584
N         0.04311630065542    0.80785895890581   -0.43700553473521
C         1.07995210540611   -0.12557620967372    0.06339598517773
C        -0.01404611114995    0.10281149667711    0.96702085562269
C        -0.02064658914258   -0.75283916414432   -0.61538957458454
