5
 energy: -8.821908146726 gnorm: 0.000209444532 xtb: 6.2.2 (9d81278992624c895f80dd42a50cac0aa55982e2)
N         0.68940808285383   -0.48496452233200   -0.09544736902606
C        -0.49719811625188    0.05366177602613   -0.02153550266347
N         1.81319644820148   -0.08951110003223    0.11323855411661
H        -1.34190945668459   -0.56404879201767   -0.27959918449597
H        -0.66349595811884    1.08486263835054    0.28334350206540
