5
 energy: -11.049361674121 gnorm: 0.000304216370 xtb: 6.2.2 (9d81278992624c895f80dd42a50cac0aa55982e2)
C         1.30310182383932   -0.38655258106293   -0.00586556092104
N         0.01583835643399   -0.73178578262442    0.19930969788530
C        -0.65579991174354    0.67078154637695   -0.44604176337452
C        -1.28658361221594   -0.38282948615062    0.21458801945153
C         0.62344434367743    0.83038530345403    0.03800860695698
