5
 energy: -11.076205704113 gnorm: 0.000225866261 xtb: 6.2.2 (9d81278992624c895f80dd42a50cac0aa55982e2)
C         1.95145236548933   -0.00983067309330   -0.07478314972048
C         0.66780406040489   -0.00800906976309   -0.19861480719687
N        -1.50283629178158    0.01676036315027    0.39977277021900
C        -0.55495841676833    0.81245961208331   -0.08500483172937
C        -0.56146171734780   -0.81138023237894   -0.04137098157228
