5
 energy: -9.452148171383 gnorm: 0.000726946373 xtb: 6.2.2 (9d81278992624c895f80dd42a50cac0aa55982e2)
C         1.30214071404050   -0.76477556349985    0.15151186623508
C         0.34110413959128    0.11600892894638   -0.05126136382036
C        -1.10508898938995   -0.24243115654980    0.64974829538564
N        -1.06170222958360   -0.29471478895012   -0.56596004308581
H         0.52354636533653    1.18591158005339   -0.18403875471280
