5
 energy: -11.002391046256 gnorm: 0.000945523386 xtb: 6.2.2 (9d81278992624c895f80dd42a50cac0aa55982e2)
C         1.85669702773583   -0.00993970309063   -0.41438150480031
C         0.60976010979688    0.01395689786673   -0.17785479761941
C        -1.44867232273893   -0.02304772608760    0.39593700853070
N        -0.30222665536462   -0.35143761402098    0.91465289236068
C        -0.71555915942393    0.37046914533771   -0.71835359846992
