3
 energy: -9.928169509304 gnorm: 0.000139999974 xtb: 6.2.2 (9d81278992624c895f80dd42a50cac0aa55982e2)
C        -0.25061718829959    0.70289716883582   -0.01493890637464
O        -0.56355225904466   -0.59788403828277   -0.03124825465655
O         0.81416944734425   -0.10501313055306    0.04618716103120
