5
 energy: -8.826434941181 gnorm: 0.000583453522 xtb: 6.2.2 (9d81278992624c895f80dd42a50cac0aa55982e2)
N         0.62433332875459   -0.03757704725444    0.40035294360908
C        -0.03032744936199    1.05767807909105   -0.07931545015882
N        -0.61946384947586   -0.13233760698033   -0.38762440715986
H         1.44903300019137   -0.40907125080445   -0.05160447414248
H        -1.42357503010461   -0.47869217405008    0.11819238785208
