4
 energy: -8.877883551753 gnorm: 0.000454872338 xtb: 6.2.2 (9d81278992624c895f80dd42a50cac0aa55982e2)
C         1.56138885549986   -0.01023043372192   -0.03942784914193
N         0.30081468661379   -0.00475241502732    0.11655405254150
C        -0.92626739018282    0.68660855436652   -0.02334911812534
C        -0.93593515193083   -0.67162570562251   -0.05377708527772
