4
 energy: -8.983448972827 gnorm: 0.000573949479 xtb: 6.2.2 (9d81278992624c895f80dd42a50cac0aa55982e2)
C        -0.54121689879163   -0.74058658673978   -0.39320351684046
N         0.35583587391978    0.48377003697116    0.74319380034775
C        -0.62079858159069    0.64578483332414   -0.17214259120644
C         0.80617960646777   -0.38896728355552   -0.17784769230259
