5
 energy: -11.151410258736 gnorm: 0.000943051191 xtb: 6.2.2 (9d81278992624c895f80dd42a50cac0aa55982e2)
C        -1.42703871907649   -0.69470953800801    0.35469317438726
C        -0.27951206338535   -0.05884756364608    0.04936166950882
C         1.07637712330328    0.02493345091708   -0.11234145692884
C        -1.58656702933489    0.63283916599699   -0.04124381073370
N         2.21674068849346    0.09578448474002   -0.25046957623352
