5
 energy: -11.038941134623 gnorm: 0.000988844577 xtb: 6.2.2 (9d81278992624c895f80dd42a50cac0aa55982e2)
C         1.29103771556605   -0.31997087610436    0.09350156051426
C         0.19448206789479   -1.02764354863870    0.38125177618498
N        -0.84949417033158    0.94342319235964   -0.33633562673218
C        -1.06512643403490   -0.28377414649204    0.12859016527855
C         0.42910082090913    0.68796537887721   -0.26700687524562
