5
 energy: -7.124263090734 gnorm: 0.000562550951 xtb: 6.2.2 (9d81278992624c895f80dd42a50cac0aa55982e2)
C        -0.33276845267879    0.00047679780266   -0.00525628670135
C         1.08770750686694    0.08035355012449   -0.61565632758701
C         1.06748384525560   -0.08344124589559    0.64969414108472
H        -0.91088860390964   -0.90805609679082   -0.11732342390963
H        -0.91153429553410    0.91066699475925    0.08854189711327
