5
 energy: -11.123824295025 gnorm: 0.000948759045 xtb: 6.2.2 (9d81278992624c895f80dd42a50cac0aa55982e2)
C        -1.55333516602034   -0.65292272462911    0.04678870182207
C        -0.25903945524439    0.07701376186552    0.00389963486847
N         1.03139433000965   -0.02605861153457   -0.01817700847890
C        -1.42262138345850    0.74253064879875    0.00966553361570
C         2.20360167471358   -0.14056307450059   -0.04217686182733
