5
 energy: -11.062692728261 gnorm: 0.000740609803 xtb: 6.2.2 (9d81278992624c895f80dd42a50cac0aa55982e2)
N         0.62414219057189   -0.79155232783293    0.01042076748448
C         0.03109836990353   -0.00990286162096   -1.00244303521072
C        -0.65527140420414    0.83102725038193   -0.01099092159497
C         0.68161352957682    0.52286741923437    0.51733855927879
C        -0.68158368584810   -0.55243948015719    0.48567463004590
