4
 energy: -5.760830578452 gnorm: 0.000259800522 xtb: 6.2.2 (9d81278992624c895f80dd42a50cac0aa55982e2)
C         0.61366163022504    0.40581908098740   -0.26385294274332
N        -0.65431947831464    0.32356244844744    0.21302817999817
H         1.26753704804387   -0.31267183992915    0.26272839885923
H        -1.22687919995428   -0.41670968950569   -0.21190363611407
