3
 energy: -8.781169686727 gnorm: 0.000594131345 xtb: 6.2.2 (9d81278992624c895f80dd42a50cac0aa55982e2)
N        -0.05244021962023    0.40795497983280   -0.00000052895693
O        -1.08827143384221   -0.21423419734798    0.00000417269918
C         1.14071165345720   -0.19372178248483   -0.00000364374051
