5
 energy: -9.578461252264 gnorm: 0.000909825101 xtb: 6.2.2 (9d81278992624c895f80dd42a50cac0aa55982e2)
C        -0.97987228297210   -0.52347128816326   -0.28029263656718
C        -0.00613235396592    0.51486723401726   -0.18357875652706
C         0.97687096997916   -0.51129505393721   -0.31150428004238
N         0.01441436029024   -0.96997121305224    0.52521235093337
H        -0.00528169332615    1.48987132114068    0.25016332220500
