5
 energy: -9.141117060898 gnorm: 0.000157457513 xtb: 6.2.2 (9d81278992624c895f80dd42a50cac0aa55982e2)
C         0.70968007245340    0.05893447071921    0.34458906533190
C        -0.71917024712125    0.04429166439821    0.32663966821418
O        -0.00573266788996    1.00710289060929   -0.36524066453708
H         1.46540031046411   -0.54022436131416   -0.13468140459945
H        -1.45017746790107   -0.57010366441255   -0.17130666441130
