4
 energy: -6.631266471918 gnorm: 0.000439607513 xtb: 6.2.2 (9d81278992624c895f80dd42a50cac0aa55982e2)
C         0.33222367235634   -0.01026137050114   -0.00767450999765
C        -0.88511748845808   -0.67581034871993   -0.02273922143861
C        -0.84029418203753    0.72937226181420    0.06126634923503
H         1.39318799813927   -0.04330054259313   -0.03085261779877
