4
 energy: -10.199934665395 gnorm: 0.000104523444 xtb: 6.2.2 (9d81278992624c895f80dd42a50cac0aa55982e2)
C        -0.89555656929399    0.72260337827552   -0.03931278564468
C         0.35172753530127   -0.02248412987745    0.01542982063609
C        -0.98018283151518   -0.60269213407410   -0.04148718169090
O         1.52401186550791   -0.09742711432396    0.06537014669949
