5
 energy: -8.014698810927 gnorm: 0.000142297316 xtb: 6.2.2 (9d81278992624c895f80dd42a50cac0aa55982e2)
C         0.73750110158840    0.01470833965262    0.23983159182375
N        -0.00978015389330    1.02566664615825   -0.20644832725389
C        -0.73818570531288    0.00030119609464    0.23822348791422
H         1.58913248542918   -0.50487596706642   -0.13404797122777
H        -1.57866772781141   -0.53580021483910   -0.13755878125631
