3
 energy: -4.387937256568 gnorm: 0.000361499045 xtb: 6.2.2 (9d81278992624c895f80dd42a50cac0aa55982e2)
C        -0.13480720720859    0.43897836932692   -0.00000029558661
C         1.10591607060856   -0.14665919407669   -0.00000360441954
H        -0.97110886339997   -0.29231917525023    0.00000390000615
