5
 energy: -8.743137332047 gnorm: 0.000817533716 xtb: 6.2.2 (9d81278992624c895f80dd42a50cac0aa55982e2)
N         0.78009154576228   -0.14691498970335    0.51923171431335
C         1.66546704610750   -0.02386242457711   -0.35060014041346
N        -0.56781695002422   -0.00922308834588    0.20693400846073
H        -0.89195419147800    0.92574569346700   -0.02179777321729
H        -0.98578645036756   -0.74574519084590   -0.35376780914682
