5
 energy: -9.188459589520 gnorm: 0.000760945955 xtb: 6.2.2 (9d81278992624c895f80dd42a50cac0aa55982e2)
C         0.87880988381446    0.10342547031653    0.22581062726094
C        -0.50915749421670    0.13617625665164    0.05992099825632
O         1.76229431985322   -0.55481288203725   -0.27515618742350
H        -1.10278827337353    0.82935720122727    0.63048179962470
H        -1.02915843607744   -0.51414604615818   -0.64105723771846
