5
 energy: -7.912788311601 gnorm: 0.001025048048 xtb: 6.2.2 (9d81278992624c895f80dd42a50cac0aa55982e2)
C        -0.07606111217250    0.66909481639410   -0.04096768152017
N        -1.27325353066019    0.26857330147721   -0.03836683985745
C         0.99155089871425   -0.18913822178563    0.03050708211765
H        -1.69314669796813   -0.65888518501854    0.01286944603925
H         2.05091044208657   -0.08964471106715    0.03595799322071
