3
 energy: -6.782849058623 gnorm: 0.000341997150 xtb: 6.2.2 (9d81278992624c895f80dd42a50cac0aa55982e2)
N        -0.00198979237593    0.63892872791213   -0.00000110818362
C         0.86845041018333   -0.31676074064227   -0.00000247862575
C        -0.86645961780217   -0.32216698727510    0.00000358680413
