5
 energy: -9.584861056524 gnorm: 0.000486916080 xtb: 6.2.2 (9d81278992624c895f80dd42a50cac0aa55982e2)
N         0.54967370752056   -0.85054750803119   -0.22430220180980
C         0.27802812998625    0.42773362057980    0.19245994144753
C        -0.90259353163987   -0.13628642709047    0.63605207753654
C        -0.72380412965192   -0.78445066931641   -0.64019748161575
H         0.79869582377974    1.34354998385827    0.03598766444322
