3
 energy: -6.368898601164 gnorm: 0.000521713117 xtb: 6.2.2 (9d81278992624c895f80dd42a50cac0aa55982e2)
O        -0.17303475208697    0.40457330983217   -0.00000010209943
C         1.05387595689128   -0.13976207278580   -0.00000343480242
H        -0.88084120480431   -0.26481123704638    0.00000353690185
