5
 energy: -11.096036919464 gnorm: 0.000662910937 xtb: 6.2.2 (9d81278992624c895f80dd42a50cac0aa55982e2)
C        -0.03452559773482    0.00244894286194    0.00193184891478
N        -1.05555092962080   -0.32081924386013    0.62972457466841
C         2.08123650406305    0.63181717665640   -1.24024890871218
C        -2.04311723030623   -0.63260166284157    1.23342681891394
C         1.05195825360403    0.31915578717815   -0.62483433379019
