5
 energy: -8.725267770527 gnorm: 0.000355295232 xtb: 6.2.2 (9d81278992624c895f80dd42a50cac0aa55982e2)
N         0.60356629608860   -0.03653063251942    0.41655359705459
C        -0.03152492082560    1.09953483048454   -0.08245914436210
N        -0.59871898959271   -0.13252922523309   -0.40387383757809
H         1.42087175201950   -0.43203608430880   -0.06051736327144
H        -1.39419413768631   -0.49843888842149    0.13029774815704
