5
 energy: -9.494347143980 gnorm: 0.000266071039 xtb: 6.2.2 (9d81278992624c895f80dd42a50cac0aa55982e2)
N        -0.71013838121652    0.16432831102429    0.13805973819490
C         0.39368303639424   -0.34912807886261    0.83066017336803
C         1.37443122646602   -0.18599188246452   -0.15965380942746
C         0.38569094490297    0.74506185083497   -0.51284031338536
H        -1.44366682654321   -0.37427020053039   -0.29622478875012
