5
 energy: -9.564233396912 gnorm: 0.000528162915 xtb: 6.2.2 (9d81278992624c895f80dd42a50cac0aa55982e2)
C         1.87436409130034   -0.42351362339571    0.12265150495024
C         0.69157320554990   -0.03298125045711    0.03032729206640
C        -0.30769320176309    1.15354323357860   -0.14260277100761
N        -0.76253859056918   -0.00729258968130   -0.02946243321116
H        -1.49570550451622   -0.68975477004623    0.01908540720038
