5
 energy: -8.008881628910 gnorm: 0.000414470369 xtb: 6.2.2 (9d81278992624c895f80dd42a50cac0aa55982e2)
C         0.65432207492206    0.06393131789965   -0.00015027356436
N        -0.67811817105498   -0.05365282488939    0.31865405603269
C        -0.06360129114647    1.21266959464251   -0.10238408332516
H         1.46883548486411   -0.61764955290880   -0.06134376873815
H        -1.38143909758471   -0.60529853473873   -0.15477593040153
