5
 energy: -11.119689139135 gnorm: 0.000907241542 xtb: 6.2.2 (9d81278992624c895f80dd42a50cac0aa55982e2)
N        -1.40028265872172    0.35998704613468   -0.58894639425817
C        -0.27309356859668   -0.08161773649426   -0.02811497292407
C         1.01336132389694    0.04501623906763    0.24644169310528
C        -1.53241216929438   -0.79358023878347    0.04699509419666
C         2.19242607271584    0.47019469008066    0.32362457988378
