4
 energy: -8.851115239947 gnorm: 0.000695460574 xtb: 6.2.2 (9d81278992624c895f80dd42a50cac0aa55982e2)
C         0.77056297145135   -0.00007139519938   -0.48064626796272
C        -0.04720012133007    0.75177503084712    0.50733375567319
C        -0.71341240671259   -0.03931225611771   -0.56060352844125
N        -0.00995044340520   -0.71239137952828    0.53391704073078
