3
 energy: -10.906101729568 gnorm: 0.000147804422 xtb: 6.2.2 (9d81278992624c895f80dd42a50cac0aa55982e2)
N        -0.00135061350208    0.28282963452921   -0.00000048891112
O        -1.10118598182126   -0.14667396114803    0.00000409986595
O         1.10253659532333   -0.13615567338118   -0.00000361095483
