5
 energy: -9.518089845227 gnorm: 0.000935573018 xtb: 6.2.2 (9d81278992624c895f80dd42a50cac0aa55982e2)
C         0.46978296568072    0.01264164721916   -0.10442321735295
C        -0.54961980350498    1.09907686214520   -0.25312694813570
C        -1.06650696063905   -0.06187605373477    0.29373179313669
N        -0.32905566365903   -1.10203031785200   -0.20292621190418
H         1.47540046211885    0.05218786221543    0.26674358425266
