4
 energy: -10.158146842788 gnorm: 0.000871707266 xtb: 6.2.2 (9d81278992624c895f80dd42a50cac0aa55982e2)
C        -0.64030278624317   -0.38068351552010   -0.03866364672160
C        -0.58703270486131    1.01862533898283   -0.06929443318339
C         0.64808574932585    0.36715906340882    0.03980669149472
O         0.57924974177863   -1.00510088687155    0.06815138841027
