5
 energy: -11.088056612845 gnorm: 0.000417600006 xtb: 6.2.2 (9d81278992624c895f80dd42a50cac0aa55982e2)
C         1.26307856295130   -0.41068652608582   -0.05849644695249
C         0.15382808158887   -0.84483615055054    0.65514389450769
N        -0.87473390487301    0.95660780191709   -0.30250207661541
C        -0.95215141763461   -0.35101959643014   -0.03520529265617
C         0.40997867797094    0.64993447115115   -0.25893907828363
