5
 energy: -10.273375869081 gnorm: 0.000773787753 xtb: 6.2.2 (9d81278992624c895f80dd42a50cac0aa55982e2)
C         1.24444732219739    0.06013890327578   -0.59674262193648
C        -0.00037650528209    0.00113191000143   -0.24277163572979
C        -1.24450845053413   -0.06049090722407    0.11086312239272
C         2.44542553849121    0.12326171470771   -0.93428654671740
C        -2.44499213225941   -0.12404373442668    0.45188368200015
