5
 energy: -8.075942339451 gnorm: 0.000774662872 xtb: 6.2.2 (9d81278992624c895f80dd42a50cac0aa55982e2)
C        -0.08334040922159    0.08391711243870    0.02833903431986
N        -1.31273014472470    0.29257076361584    0.10019472564211
C         1.15123515936103    0.03854717184632    0.01863364522612
H        -1.95301712608023   -0.44108550505372   -0.17119011492520
H         2.19785252066548    0.02605045715286    0.02402270973711
