5
 energy: -10.197538487872 gnorm: 0.000260665095 xtb: 6.2.2 (9d81278992624c895f80dd42a50cac0aa55982e2)
C        -0.96491808484609    0.74492060463127    0.08781436773243
C         0.35929442957002    0.85464659291697   -0.19987167515715
C         0.29734930626740   -0.87556967850183   -0.21129875007980
C         1.32388968839621   -0.04908197847137    0.24481066491542
C        -1.01561433939626   -0.67491654058203    0.07854439258735
