5
 energy: -11.049275022566 gnorm: 0.000211307911 xtb: 6.2.2 (9d81278992624c895f80dd42a50cac0aa55982e2)
N        -0.53369995583614   -0.82834217019634    0.34642716367605
C         0.61033822911200   -0.04078544710674    0.06009427664768
C        -0.53863417263083    0.86755887696415    0.20164635785947
C         1.84570589899024    0.11026510417328   -0.24181618891649
C        -1.38370999963178   -0.10869636383261   -0.36635060926670
