5
 energy: -4.175218442644 gnorm: 0.000237392687 xtb: 6.2.2 (9d81278992624c895f80dd42a50cac0aa55982e2)
C        -0.00000000714698   -0.00000000338591    0.00000000659727
H        -0.67183937104840    0.84819004343616   -0.02569195730729
H        -0.43141699913477   -0.81907896138972   -0.56075270469725
H         0.15422203779088   -0.30712946635904    1.02632433232469
H         0.94903433953927    0.27801838769851   -0.43987967691742
