5
 energy: -11.157978253983 gnorm: 0.000908686549 xtb: 6.2.2 (9d81278992624c895f80dd42a50cac0aa55982e2)
N         1.24243091806754    0.26935782399392   -0.11933069402953
C         0.02550331777059    0.00839041229797   -0.00199863410137
C        -1.20886372595265   -0.26164789279226    0.11843442423440
C         2.40490980511864    0.52353017742310   -0.23418891566699
C        -2.46398131499887   -0.53962952091749    0.23708381956522
