5
 energy: -11.131096362575 gnorm: 0.000944092025 xtb: 6.2.2 (9d81278992624c895f80dd42a50cac0aa55982e2)
C        -1.31207618041674   -0.08151103015290    0.00698538930193
C        -0.01090178283563    0.00927921173677   -0.00118301542421
C         1.28456721607867    0.07482879296507   -0.00643622037141
N        -2.48324919314362   -0.14800848325117    0.01649314947812
C         2.52165994031735    0.14541150870225   -0.01585930298443
