5
 energy: -6.415860593900 gnorm: 0.000095868921 xtb: 6.2.2 (9d81278992624c895f80dd42a50cac0aa55982e2)
C        -0.02849312449053    0.00056203749596   -0.00280289551914
N         1.31423960682923   -0.02592391067101    0.12928309163519
H        -0.53126294595288   -0.15826473983936    0.96822067284538
H        -0.37420006925611    0.97116160027541   -0.40194372982674
H        -0.38028346712972   -0.78753498726099   -0.69275713913468
