5
 energy: -9.518123747772 gnorm: 0.000515289964 xtb: 6.2.2 (9d81278992624c895f80dd42a50cac0aa55982e2)
C         1.89455314988687   -0.46765930904557   -0.34166277545301
N         0.77147006468249   -0.21430925338608   -0.17294368285504
C        -0.52219803865624    0.13971378237348    0.10914445257536
C        -1.54121690627497   -0.25741089036315   -0.57792917407866
H        -0.60260826962969    0.79966667042359    0.98339217981373
