5
 energy: -10.199164099589 gnorm: 0.000736132850 xtb: 6.2.2 (9d81278992624c895f80dd42a50cac0aa55982e2)
C         1.94765681500662    0.02168173077054   -0.05143298628555
C         0.67697884807913    0.02786815220767   -0.06967841695814
C        -1.53929570170687   -0.11135666566491    0.31387413793364
C        -0.53826617012114   -0.77116043618581   -0.36280231730389
C        -0.54707379125599    0.83296821887077    0.17003858261220
