5
 energy: -10.233196205029 gnorm: 0.000402549388 xtb: 6.2.2 (9d81278992624c895f80dd42a50cac0aa55982e2)
C        -1.50087905970083   -0.41126348063364    0.04017134771620
C         0.01598164877510   -0.63771824974309    0.08399456523053
C         0.71059356742013    0.71006499587018   -0.08646649107571
C         1.51926321049617   -0.33369817014609    0.05743809615782
C        -0.74495836698708    0.67261490464914   -0.09513651803233
