5
 energy: -11.026083986796 gnorm: 0.000180318254 xtb: 6.2.2 (9d81278992624c895f80dd42a50cac0aa55982e2)
N         1.68258651785028    0.53340427233842    0.52817289940326
C         0.55421246750005    0.24025906098702    0.23096581774895
C        -1.17837457375221   -0.64172402960285   -0.60642746238381
C        -0.55303074419401   -0.67744153019804    0.61687215435020
C        -0.50539366740411    0.54550222647545   -0.76958340911860
