5
 energy: -11.078270003967 gnorm: 0.000737863892 xtb: 6.2.2 (9d81278992624c895f80dd42a50cac0aa55982e2)
C        -1.49974582963684    0.79168664398792   -0.03403300087589
C        -0.22011766922686    0.02005479634113   -0.00021501128211
C         1.08316505929587   -0.10139327591626    0.00743711598002
C        -1.62076452901439   -0.49891930985991    0.01318157671748
N         2.25746296858047   -0.21142985455112    0.01363031946217
