5
 energy: -9.547123163174 gnorm: 0.000331196745 xtb: 6.2.2 (9d81278992624c895f80dd42a50cac0aa55982e2)
C        -1.32715860363787    0.84157169098051    0.27349635964569
C        -0.08855574107485    0.11423831913815    0.04524264077946
C        -1.44214384236598   -0.34869658784615   -0.28968376880472
N         1.12989901105951    0.07381804099420    0.13278251654912
H         1.72796017602441   -0.68093046327195   -0.16183774817478
