5
 energy: -9.597448999214 gnorm: 0.000557269632 xtb: 6.2.2 (9d81278992624c895f80dd42a50cac0aa55982e2)
N        -1.55819863398818   -0.12726750747275    0.01920029738864
C        -0.35987654803309    0.84327452378098    0.10844990737547
C         0.69401540513507    0.07990093491938   -0.00567058386778
C        -0.52683549120170   -0.79889400281911   -0.08361372409290
H         1.75089526809139    0.00298605159325   -0.03836489680343
