5
 energy: -11.071021628728 gnorm: 0.000580651799 xtb: 6.2.2 (9d81278992624c895f80dd42a50cac0aa55982e2)
C         2.00793140692385    0.20625012753889    0.13760457792290
C         0.73998574517783    0.27920554183555    0.03273884015409
C        -0.73663341544395   -0.28812701792023   -0.03303466771781
N        -0.37701177960054    0.99458891626389   -0.11065059178214
C        -1.63427195705719   -1.19191756771810   -0.02665815857704
