4
 energy: -8.066339960677 gnorm: 0.000459261751 xtb: 6.2.2 (9d81278992624c895f80dd42a50cac0aa55982e2)
C        -0.39369544712335    0.28177455791044    0.86052717850551
C        -0.47763428770349   -0.49836420062992   -0.70596334963399
C         0.19209648158269    0.60192120904855   -0.75877761779831
C         0.67923325324066   -0.38533156633081    0.60421278892679
