%nosave
%nproc=8
%mem=2gb
%chk=input

#P M062X/cc-pvtz nosymm opt(noeigentest) optcyc=120 freq

 Title

0 1
N  
C   1 B1
H   2 B2 1 A2
Variables:
B1        1.15715
B2        1.05843
A2      179.97438

--Link1-- 
%nosave
%nproc=8
%mem=2500mb
%chk=input

#P CCSD(T)/aug-cc-pvtz geom=allcheck guess=read
