4
 energy: -8.983448756090 gnorm: 0.000925837046 xtb: 6.2.2 (9d81278992624c895f80dd42a50cac0aa55982e2)
C         0.68968004507564    0.30284601037141   -0.65495777060328
C         0.21516452239807    0.62219909424772    0.63151525494497
C        -0.57395958387805   -0.31563173877229   -0.63429349356545
N        -0.33088498359216   -0.60941336584509    0.65773700922376
