5
 energy: -9.216512528621 gnorm: 0.001018475367 xtb: 6.2.2 (9d81278992624c895f80dd42a50cac0aa55982e2)
C         0.63695496475413   -0.13762413807893    0.03749136979157
C        -0.63432624654138   -0.15096236978499    0.02143628699507
O        -0.00881602663803    1.14904554245917   -0.23486029851343
H         1.65213871606462   -0.41327701970311    0.10877090754992
H        -1.64595140763411   -0.44718101489215    0.06716173417512
