5
 energy: -9.521837119136 gnorm: 0.000625445796 xtb: 6.2.2 (9d81278992624c895f80dd42a50cac0aa55982e2)
C         1.09908752568549    0.24527677206182    0.09407632665149
C        -0.19278174354639    0.09603784111385    0.02043189742721
C        -1.53549532428489    0.63274693845680    0.13000113417017
N        -1.34510320269854   -0.62884984096671   -0.20370422607671
H         1.97429274484432   -0.34521171066577   -0.04080513217216
