5
 energy: -11.096039934340 gnorm: 0.000717811407 xtb: 6.2.2 (9d81278992624c895f80dd42a50cac0aa55982e2)
N        -1.14479737660669    0.54545306093345   -0.07837862649643
C        -0.02345706436927    0.01798727802793   -0.00121441937782
C         1.13923324981445   -0.54409573527485    0.07559054664883
C        -2.22610074181634    1.05800154968498   -0.14829248945623
C         2.25512193296910   -1.07734715337325    0.15229398868340
