5
 energy: -10.982729659239 gnorm: 0.000741027353 xtb: 6.2.2 (9d81278992624c895f80dd42a50cac0aa55982e2)
N         0.04973608478680   -1.01553647477597    0.08488900065754
C        -0.46553532951982   -0.15382521623489   -0.93529176681459
C        -0.51205147407191    0.95088415696278    0.04631352695597
C         0.07027939201677    0.03851025974408    1.05293845860954
C         0.85757232679165    0.17996727430052   -0.24884821941195
