5
 energy: -9.694947797727 gnorm: 0.000973820873 xtb: 6.2.2 (9d81278992624c895f80dd42a50cac0aa55982e2)
C         1.08853176503269   -0.63890821651603    0.06925316472000
C         0.05320280481040   -0.03081497400412    0.00787240056457
C        -2.06617978540348    1.22144005871222   -0.14288663013710
N        -1.05735038281127    0.63102998502423   -0.06755523322420
H         1.98179559837517   -1.18274685321455    0.13331729807676
