5
 energy: -11.128182925652 gnorm: 0.000898244170 xtb: 6.2.2 (9d81278992624c895f80dd42a50cac0aa55982e2)
O         0.71902051151832   -0.45473545712726    0.05456345174601
C        -0.46890692604922   -0.06042294435799    0.00683089492186
O         1.71150969086476    0.36630584434284   -0.04205529494369
H        -0.74396759621239    0.98054130128515   -0.11761976676833
H        -1.21765468011798   -0.83168874414624    0.09828171504067
