%nosave
%nproc=8
%mem=2gb
%chk=input

#P CCSD(T)/aug-cc-pvtz nosymm 

 Title

0 2
C
C   1 B1
C   2 B2 1 A2
H   1 B3 2 A3 3 D3
H   1 B4 2 A4 3 D4
H   2 B5 1 A5 3 D5
C   1 B6 2 A6 3 D6
Variables:
B1        2.62284829
B2        1.21971704
A2      174.61720719
B3        1.08784299
A3      117.72985608
D3       -4.35025112
B4        1.08656736
A4      125.88357785
D4      175.46593529
B5        1.06198495
A5      177.41081533
D5      179.02152648
B6        2.08784846
A6       31.94213749
D6        0.03717134

