5
 energy: -9.318186299869 gnorm: 0.000741319800 xtb: 6.2.2 (9d81278992624c895f80dd42a50cac0aa55982e2)
C        -0.55310024077710   -0.52029532588695    0.07178758748872
C         0.38145196319770    0.35866438622210   -0.04927086457032
O        -1.39391346059571   -1.31447904811211    0.18116990847805
H         0.16521383936738    1.40722381430092    0.00846503209231
H         1.40034889881123    0.06888617347255   -0.21215066349227
