5
 energy: -8.102622936039 gnorm: 0.000273029509 xtb: 6.2.2 (9d81278992624c895f80dd42a50cac0aa55982e2)
C         0.78221909042402   -0.15304946924420    0.02694698082143
N         1.92240820250615   -0.37652519316058    0.06626949864147
C        -0.54613828102798    0.10698596724675   -0.01872128694309
H        -1.24087400241356   -0.51760323785643    0.51301294464285
H        -0.91761600948340    0.94019293301969   -0.58750813716091
