4
 energy: -10.214269427991 gnorm: 0.000529369407 xtb: 6.2.2 (9d81278992624c895f80dd42a50cac0aa55982e2)
C        -1.76418125842821   -0.19390988875692   -0.33517591028102
O        -0.64094713104720   -0.07054139824344   -0.12132277646675
C         0.59552403118822    0.06555142930601    0.11500116670162
C         1.80960435828195    0.19889885769435    0.34149752004790
