5
 energy: -8.890718920161 gnorm: 0.000126908873 xtb: 6.2.2 (9d81278992624c895f80dd42a50cac0aa55982e2)
C        -0.03529780137651   -0.29512672191152    0.00916342905590
N        -0.48257876538209    1.07048683175584   -0.07428949969976
N         0.72173699694980    0.92913401078587    0.01220295065564
H        -0.16380698862031   -0.81626991888483    0.94682679304772
H        -0.04005344157088   -0.88822420174536   -0.89390367305951
