5
 energy: -8.956918658285 gnorm: 0.000297972424 xtb: 6.2.2 (9d81278992624c895f80dd42a50cac0aa55982e2)
C         0.75001449943092   -0.02952854979932    0.00699840917834
N        -0.55551716577026   -0.01807123407321   -0.18556418432785
N         1.89090467160457   -0.05313283966462    0.11258027358540
H        -1.00865428487594    0.88230466979301   -0.15158229242206
H        -1.07674772039453   -0.78157304625586    0.21756779398792
