4
 energy: -10.207904056808 gnorm: 0.000905031350 xtb: 6.2.2 (9d81278992624c895f80dd42a50cac0aa55982e2)
C         1.78243584645889   -0.41988978988036    0.23186396788682
C         0.59854694930664   -0.22714274533525   -0.09718778040395
C        -0.63135382670567    0.23924959051737    0.08708667890287
O        -1.74962996906510    0.40778194470348   -0.22176286638050
