5
 energy: -9.537905307937 gnorm: 0.000725512050 xtb: 6.2.2 (9d81278992624c895f80dd42a50cac0aa55982e2)
C        -0.73473687970217    0.71556370693306    0.46608691998764
C        -0.71440586519951   -0.67821043945539    0.59385930528018
C        -0.34200347010568   -0.76492599771751   -0.75296775464991
N         0.40154396647755    0.29416202000811   -0.22776878640463
H         1.38960224852981    0.43341071023174   -0.07920968421328
