5
 energy: -7.173296501601 gnorm: 0.000750328532 xtb: 6.2.2 (9d81278992624c895f80dd42a50cac0aa55982e2)
C         0.77774609624776   -0.09459104435237   -0.04265989786336
C        -0.56788429598778    0.06862456501728    0.03103069877163
C         1.98609762784533   -0.23931037332027   -0.10761508198488
H        -1.22118408049306   -0.69821569940913   -0.34379493855547
H        -0.97477434760876    0.96349255206100    0.46304021962860
