4
 energy: -7.175648050080 gnorm: 0.000294864894 xtb: 6.2.2 (9d81278992624c895f80dd42a50cac0aa55982e2)
O         1.18656457905081   -0.12300426936925    0.01789974726250
C         0.00083773068901   -0.00008710952042    0.00006690024445
H        -0.49816341633012    0.98381397924976   -0.00444547738035
H        -0.68923889341319   -0.86072260036184   -0.01352217012660
