4
 energy: -8.930046927633 gnorm: 0.000188997607 xtb: 6.2.2 (9d81278992624c895f80dd42a50cac0aa55982e2)
N         1.56274352435814   -0.03441462203199    0.02097924535312
C         0.33900755261467   -0.00744341020471    0.00370144449287
C        -0.93610133633397    0.70244034725227    0.00509098244759
C        -0.96564974064233   -0.66058231501732   -0.02977267229358
