3
 energy: -8.121121261851 gnorm: 0.000374786518 xtb: 6.2.2 (9d81278992624c895f80dd42a50cac0aa55982e2)
C        -0.05157336485256   -0.00016901434849    0.00000018032046
C         1.26687262626016    0.00338270942779   -0.00000442813516
O        -1.21529926140760   -0.00321369507930    0.00000424781471
