5
 energy: -8.746349098375 gnorm: 0.000575772685 xtb: 6.2.2 (9d81278992624c895f80dd42a50cac0aa55982e2)
N        -0.37981094595704    0.25321425077061    0.08993356597983
C         0.94284295334209    0.13481599586362    0.15660336601356
N        -1.02183532844624   -0.68046951181758   -0.43573607945480
H        -0.83907041276021    1.09906489775399    0.46688917692699
H         1.29787373381965   -0.80662663256890   -0.27768902946385
