5
 energy: -11.078268784112 gnorm: 0.000708627992 xtb: 6.2.2 (9d81278992624c895f80dd42a50cac0aa55982e2)
C        -1.51576326935514   -0.68462424866207    0.33907990809317
C        -0.21954111012884   -0.00918620432691    0.02024045038772
C         1.08118330303164    0.04083611182022   -0.11398928279034
C        -1.59887994620494    0.56242467308027   -0.00668552968436
N         2.25300102265728    0.09054966808849   -0.23864554600618
