5
 energy: -8.684980143308 gnorm: 0.000645273763 xtb: 6.2.2 (9d81278992624c895f80dd42a50cac0aa55982e2)
N         0.02498549900922   -0.30068949153067    0.01801097472050
C         0.74248846326557    0.96561876539587   -0.05009611292727
N        -0.60354671917019    1.03258103448001   -0.06672193340201
H        -0.09000547856405   -0.79823934770874    0.90393055241245
H        -0.07392176454230   -0.89927196063473   -0.80512248080193
