5
 energy: -11.088056439241 gnorm: 0.000547782774 xtb: 6.2.2 (9d81278992624c895f80dd42a50cac0aa55982e2)
C        -0.59708194579927    0.54540946641927    0.02552925496411
N         0.53982206054808    1.21063221348936    0.12452798352693
C         0.15757653343553   -1.03808841113685    0.25021934847476
C         1.00211854325249   -0.00991905384905   -0.16889480393346
C        -1.10243519143683   -0.70803421492273   -0.23138178303235
