4
 energy: -8.924086553954 gnorm: 0.000499306113 xtb: 6.2.2 (9d81278992624c895f80dd42a50cac0aa55982e2)
C         0.15665659706918   -1.83468131786990   -0.07597327835591
N        -0.25004896705355    0.56724155684515   -0.09205227579640
C        -0.23260066283272    1.79974210709196    0.10798339117556
C         0.32599303282232   -0.53230134606721    0.06004216297500
