5
 energy: -8.787856813448 gnorm: 0.000864897498 xtb: 6.2.2 (9d81278992624c895f80dd42a50cac0aa55982e2)
N         0.07243123258698   -0.35795941780887    0.51843471060362
C        -1.14067632413716   -0.46676839071983    0.25093339312681
N         1.05829916050386    0.27685371734534    0.01000228374677
H        -1.68960130363225   -0.07606716699446   -0.59940692140165
H         1.69955039445885    0.62394283804727    0.72524453391756
