4
 energy: -7.043090122973 gnorm: 0.000321848716 xtb: 6.2.2 (9d81278992624c895f80dd42a50cac0aa55982e2)
O         1.21559656386105   -0.12569045185021   -0.04737980458668
C        -0.02283535120554    0.00126371717472    0.22390058175079
H        -0.50498201028868    0.94452467773423   -0.08391910878214
H        -0.68777920237032   -0.82009794306049   -0.09260266838197
