5
 energy: -8.870727379633 gnorm: 0.000382905046 xtb: 6.2.2 (9d81278992624c895f80dd42a50cac0aa55982e2)
N        -0.72966507825945   -0.09606381391935    0.44268699288835
C         0.57937974629712    0.04503173264805    0.01599358881655
N         0.00059121230700    1.12073843803839   -0.19563004024902
H        -1.33844862570949   -0.56052531667209   -0.23728324497731
H         1.48814274536831   -0.50918104009326   -0.02576629647857
