5
 energy: -11.096030513631 gnorm: 0.000511456793 xtb: 6.2.2 (9d81278992624c895f80dd42a50cac0aa55982e2)
N         1.23510633709550    0.27280838088805   -0.11330069915270
C         0.03026819700561   -0.01373796930885   -0.02546083772359
C        -1.22873084255842   -0.26683778322482    0.12921878684463
C         2.39823754074103    0.53912726159655   -0.22578632180634
C        -2.43488223227847   -0.53135888994570    0.23532907183975
