5
 energy: -8.023390865911 gnorm: 0.000189153855 xtb: 6.2.2 (9d81278992624c895f80dd42a50cac0aa55982e2)
C         0.74915410353893   -0.07281901065972    0.18724175398695
N        -0.57570385296895   -0.02101860843537    0.13244059853275
C         1.93631520046501   -0.01105827371349   -0.15152148158458
H        -1.07765509414069   -0.77502775864757   -0.31457669788051
H        -1.03211035689430    0.87992365145615    0.14641582694538
