5
 energy: -7.922008140481 gnorm: 0.000335489920 xtb: 6.2.2 (9d81278992624c895f80dd42a50cac0aa55982e2)
C         0.72376888718886   -0.60840575957622    0.11552142257003
N         1.78520646365115    0.05040192090105   -0.13004751833800
C        -0.48955224931766    0.03499986117586    0.02300755603895
H        -1.37103710799573   -0.55338462121888    0.23488111278457
H        -0.64838699352137    1.07638959872343   -0.24336257305381
