5
 energy: -9.048749899861 gnorm: 0.000366266515 xtb: 6.2.2 (9d81278992624c895f80dd42a50cac0aa55982e2)
C        -0.11846878055846    0.02759152515974    0.00357109600700
C         1.31346996155851    0.29863766587792   -0.11559196813916
O        -1.00329556149887    0.93659808281070   -0.05814120860164
H        -0.04203127337784   -0.51752736404883    0.99090281777530
H        -0.14967434611462   -0.74529890979779   -0.82073973704324
