3
 energy: -6.900175621906 gnorm: 0.000165355159 xtb: 6.2.2 (9d81278992624c895f80dd42a50cac0aa55982e2)
C         0.70320915496602   -0.35711355160498    0.06913854567299
N        -0.62982934742533   -0.43114674587409   -0.06047032635231
C        -0.07337980754069    0.78826029747907   -0.00866821932068
