5
 energy: -11.123824498673 gnorm: 0.000768333043 xtb: 6.2.2 (9d81278992624c895f80dd42a50cac0aa55982e2)
C        -1.44266698898399    0.80570835769025   -0.06352449638740
C        -0.26376815719275   -0.04672647393840   -0.37256073575600
N         1.01443521085701   -0.08227156050146   -0.57214738245089
C        -1.48804459013235   -0.58100454524454   -0.26042203298025
C         2.18003649802078   -0.09570829167288   -0.74455235240838
