5
 energy: -11.128739081424 gnorm: 0.000572458033 xtb: 6.2.2 (9d81278992624c895f80dd42a50cac0aa55982e2)
C         1.21787032638004    0.10307633696478   -0.10267858677154
N        -0.00011097202271    0.01450012177680    0.01358892601529
C        -1.21821893835860   -0.09060788874716    0.11145966843964
C         2.48913476692038    0.18214137899871   -0.22337866926753
C        -2.48867518291562   -0.20910994899139    0.20100966158414
