5
 energy: -11.070877740899 gnorm: 0.000728596309 xtb: 6.2.2 (9d81278992624c895f80dd42a50cac0aa55982e2)
C         0.16672316611358    1.07566166589629    0.02688910099128
N        -0.91712053055172    0.06587464737798   -0.00763592171061
C         0.37856824197797   -0.00541004058145   -0.89678069167390
C         0.01121926208758   -1.08858387254278   -0.02538556625715
C         0.36060886037258   -0.04754240014481    0.90291307865386
