3
 energy: -6.091541216842 gnorm: 0.000573153932 xtb: 6.2.2 (9d81278992624c895f80dd42a50cac0aa55982e2)
C         1.01943216235263   -0.67308735481668    0.04215958085271
C        -0.84308257328328    0.88433430015500   -0.03499111313854
C        -0.17634958907283   -0.21124694534006   -0.00716946771417
