5
 energy: -10.246616153791 gnorm: 0.000109583604 xtb: 6.2.2 (9d81278992624c895f80dd42a50cac0aa55982e2)
C        -0.43028875215766   -1.25504418959568    0.19284633800396
C        -0.81002190467945    0.04566255766859   -0.00648456977606
C         0.73214984392386   -0.49693013286203    0.53006335983503
C        -0.28354238217554    1.29526743915316   -0.19828203123876
C         0.79170419509402    0.41104532563072   -0.51814309682942
