5
 energy: -9.578461330829 gnorm: 0.000706360539 xtb: 6.2.2 (9d81278992624c895f80dd42a50cac0aa55982e2)
C         0.70493275099076   -0.89375645290287   -0.13644056666241
C         0.27738521411021    0.42618529082370    0.19759769752762
C        -0.94742197373921   -0.16879345725056    0.62235130366985
N        -0.58253349336028   -0.76472744438472   -0.53911718244671
H         0.54763750199328    1.40109106371445   -0.14439125208661
