4
 energy: -8.137077107884 gnorm: 0.000209110716 xtb: 6.2.2 (9d81278992624c895f80dd42a50cac0aa55982e2)
C        -0.79994648592004    0.56521397228506    0.13494921653473
C        -0.43310262035125   -0.88056394743061   -0.13528029751572
C         0.80039383188799   -0.56723598725307    0.12330664708213
C         0.43265527437981    0.88258596239687   -0.12297656610113
