4
 energy: -5.740969716569 gnorm: 0.000300301254 xtb: 6.2.2 (9d81278992624c895f80dd42a50cac0aa55982e2)
C         1.24414090421185   -0.01812075405880   -0.05267991702274
N        -0.09475831990920   -0.00235067020632    0.25912096907001
H        -0.58733159683876   -0.82223326868744   -0.11539440409557
H        -0.56205098746040    0.84270469295430   -0.09104564795170
