5
 energy: -11.010160982270 gnorm: 0.000846676376 xtb: 6.2.2 (9d81278992624c895f80dd42a50cac0aa55982e2)
C         1.90535568589954   -0.01244611842046   -0.17900005518068
C         0.65331019681262   -0.00428644637263   -0.06212589495429
N        -1.47314107143278    0.00964487431862    0.13928960036524
C        -0.53907595247820    0.92422676830790    0.02617952225535
C        -0.54644885880467   -0.91713907783519    0.07565582751439
