3
 energy: -8.459628246112 gnorm: 0.000140684843 xtb: 6.2.2 (9d81278992624c895f80dd42a50cac0aa55982e2)
O        -0.15463915157351    0.42646156789900   -0.00000020451417
O         1.00789027352734   -0.16037764192297   -0.00000323830111
H        -0.85325212194860   -0.26608292597079    0.00000344281702
