5
 energy: -9.103403668913 gnorm: 0.000265101133 xtb: 6.2.2 (9d81278992624c895f80dd42a50cac0aa55982e2)
O         0.80625042221372    0.18908061935516    0.24853708674831
C        -0.49890950680874    0.11478309279188    0.07138130523506
C         1.72097169175401   -0.50037877993548   -0.34736548555850
H        -0.92567431702250   -0.58090530549267   -0.63705644325813
H        -1.10263829014172    0.77741937328111    0.66450353683500
