4
 energy: -5.900453674817 gnorm: 0.000090152329 xtb: 6.2.2 (9d81278992624c895f80dd42a50cac0aa55982e2)
C         1.24464985421511   -0.01925099553273    0.02407543545141
N        -0.03402719783222    0.00052756240090   -0.00074450374990
H        -0.61825938390044   -0.84337471652859   -0.02413565580362
H        -0.59236327247896    0.86209814966217    0.00080572410211
