5
 energy: -11.157977331988 gnorm: 0.000731153835 xtb: 6.2.2 (9d81278992624c895f80dd42a50cac0aa55982e2)
C        -2.46740537313083   -0.14978247465895   -0.02582832597476
N        -1.27433053770362   -0.08224472144730   -0.01193569704637
C         1.23970290983313    0.07954659109643    0.01186080336420
C        -0.02630637891404   -0.00509971612291    0.00005299119684
C         2.52833937991540    0.15758032113271    0.02585022846006
