5
 energy: -9.502131630676 gnorm: 0.000538466202 xtb: 6.2.2 (9d81278992624c895f80dd42a50cac0aa55982e2)
C         1.05509749768401   -0.37517192789083   -0.02774140914963
N        -0.13507149782957   -0.12680054574865   -0.01009250118173
C        -1.32083610641546    0.75701662562700    0.05472384128140
C        -1.49665248977757   -0.53928968060875   -0.04273561350707
H         1.89746259633859    0.28424552862124    0.02584568255703
