4
 energy: -8.941453503402 gnorm: 0.000231815219 xtb: 6.2.2 (9d81278992624c895f80dd42a50cac0aa55982e2)
C         1.87492831262398   -0.01272152078081    0.08767191095448
C         0.60424366141319    0.08961443968048   -0.22446381483632
C        -0.64574680494052   -0.07198671151759    0.16599841770214
N        -1.83342616909315   -0.00490620737511   -0.02920551381681
