5
 energy: -11.089675299547 gnorm: 0.000563276053 xtb: 6.2.2 (9d81278992624c895f80dd42a50cac0aa55982e2)
C        -0.00191845201342   -0.01951010252885    0.00225828134093
O         1.10348536101455    0.65193587695106   -0.17067587039575
O        -0.95348248062823    0.87330736085372   -0.00587026832779
H         0.00421021176945   -0.66168766760741    0.94135288306459
H        -0.15229464013711   -0.84404446766852   -0.76706502568372
