4
 energy: -10.312361782995 gnorm: 0.000750287730 xtb: 6.2.2 (9d81278992624c895f80dd42a50cac0aa55982e2)
O         1.78626640539247    0.34838570339165    0.11133541602226
C         0.66324547075954    0.13139685171175    0.04231318005488
C        -1.84197588157705   -0.36153260363057   -0.11588659113009
C        -0.60753599457498   -0.11824995147284   -0.03776200494717
