5
 energy: -10.228044596385 gnorm: 0.000295421878 xtb: 6.2.2 (9d81278992624c895f80dd42a50cac0aa55982e2)
C         1.78004901539294   -0.20911241152048   -0.04603080496248
C         0.52052547155026   -0.06088934229690    0.00082504550422
C        -1.11412262550734    0.13826524853253    0.44094870058859
C        -0.46997320384803    1.11925226604469   -0.21674440432657
C        -0.71647865759132   -0.98751576076160   -0.17899953680376
