5
 energy: -10.217897268946 gnorm: 0.000532823932 xtb: 6.2.2 (9d81278992624c895f80dd42a50cac0aa55982e2)
C        -0.65036694877113   -0.79614293786627    0.03482022232085
C        -0.14862575594062    0.41002848795085    0.98807130661929
C         0.72491914478490    0.59047088879156   -0.36086746949488
C        -0.66936021773178    0.49053502992970   -0.53970968762009
C         0.74343496074189   -0.69489187726934    0.21661462817399
