4
 energy: -8.145910854973 gnorm: 0.000948076162 xtb: 6.2.2 (9d81278992624c895f80dd42a50cac0aa55982e2)
C         0.66653912649887   -0.27678499245492   -0.31443331991536
C        -0.56075203323454    0.23197197442349    0.50533224954918
C        -0.50165873345304   -1.05567439893901   -0.09849988509925
C         0.39587164019219    1.10048741697219   -0.09239804453457
