5
 energy: -9.694952572199 gnorm: 0.000821784801 xtb: 6.2.2 (9d81278992624c895f80dd42a50cac0aa55982e2)
C         2.14423002868478   -0.54237789897754    0.94308801102180
N         1.09860629757358   -0.28440400088827    0.48250755848189
C        -0.05492877218638    0.01009763420169   -0.02700232728531
C        -1.12688678364771    0.28932001276858   -0.49400398423837
H        -2.06102077042428    0.52736425289553   -0.90458925798001
