5
 energy: -11.071021778131 gnorm: 0.000880451626 xtb: 6.2.2 (9d81278992624c895f80dd42a50cac0aa55982e2)
C        -1.95502631992743   -0.51217754684174   -0.07973261884245
C        -0.79187309634504    0.00231961125607   -0.00974946179721
C         0.79176014018057   -0.01054622699338    0.01017091706967
N         0.00708995190237    1.06444885846531    0.10931493380043
C         1.94804932418952   -0.54404469588628   -0.03000377023045
