3
 energy: -8.926686931906 gnorm: 0.000137711363 xtb: 6.2.2 (9d81278992624c895f80dd42a50cac0aa55982e2)
N        -0.00137616210416   -0.00029562019913    0.00000000531967
O        -1.18995532814984   -0.01688380316167    0.00000418320605
C         1.19133149024877    0.01717842336080   -0.00000418852398
