5
 energy: -9.099386285965 gnorm: 0.000555533299 xtb: 6.2.2 (9d81278992624c895f80dd42a50cac0aa55982e2)
C        -0.41478525373533    0.02050186623341    0.12430863524784
C        -1.41801022858902   -0.85441237241795    0.09245482855762
O         0.87334516005731   -0.33911075602471    0.33794751064352
H        -0.54063481704331    1.00193926833151   -0.36291765450011
H         1.50008413931035    0.17108199388298   -0.19179331994539
