3
 energy: -10.657628370762 gnorm: 0.000148868948 xtb: 6.2.2 (9d81278992624c895f80dd42a50cac0aa55982e2)
O         0.01077005272630    0.44152402451714   -0.00000080819140
O        -1.12446131547796   -0.23211461083788    0.00000433023291
N         1.11369126275166   -0.20940941367926   -0.00000352204151
