5
 energy: -10.950372845735 gnorm: 0.000133362304 xtb: 6.2.2 (9d81278992624c895f80dd42a50cac0aa55982e2)
N         1.35500150482064   -0.01412874279707    0.00363683726064
C         0.22715307467387   -0.71735656081919   -0.35150508719843
C        -0.91615332084430   -0.30479932012679    0.63605089217667
C        -0.90617116296461    0.32378970896167   -0.64094253298380
C         0.24016890431614    0.71249591478488    0.35275889074666
