5
 energy: -10.328734623394 gnorm: 0.000287232566 xtb: 6.2.2 (9d81278992624c895f80dd42a50cac0aa55982e2)
C        -1.27836929551783    0.13626592901542    0.01737149674704
C        -0.00004721827794   -0.00113807415090   -0.00008410505162
C         1.27833993354296   -0.13633185838926   -0.01772374631274
C        -2.54640408486650    0.27329426445876    0.03308450073275
C         2.54648066511930   -0.27209026093402   -0.03264814611542
