3
 energy: -3.558938575595 gnorm: 0.000239371301 xtb: 6.2.2 (9d81278992624c895f80dd42a50cac0aa55982e2)
N         0.00006751373546    0.00132983795025   -0.00000000255665
H        -1.38983849172603   -0.00605195891174    0.00000486202680
H         1.38977097799056    0.00472212096149   -0.00000485947015
