5
 energy: -11.002391824007 gnorm: 0.000399623055 xtb: 6.2.2 (9d81278992624c895f80dd42a50cac0aa55982e2)
C        -1.50087316437021    0.02726760301388    0.06185072010423
N        -0.50057027024922    0.24487840189603    0.86175553917511
C         0.63491379090101   -0.01561228505897   -0.03833722819128
C        -0.53638521291043   -0.25128022293857   -0.90155120962809
C         1.90291485663757   -0.00525249691063    0.01628317853828
