5
 energy: -9.551869587927 gnorm: 0.000690311892 xtb: 6.2.2 (9d81278992624c895f80dd42a50cac0aa55982e2)
C        -1.10760917926757    0.21855229497952    0.74587003045792
N        -0.14486200185370    0.04391580359004    0.00401848816885
C         1.11338020251519   -0.25363496947548    0.09490489004406
C         2.22714483504482   -0.47884683055742   -0.36228457103314
H        -2.08805084392099    0.47001620769988    0.38051016235400
