5
 energy: -9.537905642597 gnorm: 0.000253809437 xtb: 6.2.2 (9d81278992624c895f80dd42a50cac0aa55982e2)
C         0.98925622796064    0.18612138388825   -0.50598536248961
N         0.09325868417407   -0.29112529976846    0.45369870497816
C        -0.24958348126857    0.74672108080328   -0.83884496630936
C        -0.84839071337349   -0.48737943897285   -0.55885421308115
H         0.01545928250734   -0.15433772595022    1.44998583690196
