5
 energy: -11.026083504126 gnorm: 0.000357547912 xtb: 6.2.2 (9d81278992624c895f80dd42a50cac0aa55982e2)
N        -0.65551549726426   -0.08134122328015   -1.72028827556200
C        -0.15753268672586   -0.01298807408717   -0.62720538138089
C         0.50386880758855   -0.85010803913200    0.40972837316279
C         0.21555877783404   -0.00748139683688    1.45694580623685
C         0.09361959856754    0.95191873334143    0.48081947754674
