5
 energy: -11.026083984402 gnorm: 0.000348076483 xtb: 6.2.2 (9d81278992624c895f80dd42a50cac0aa55982e2)
C        -0.49325434874359    0.93824830529727    0.14693130623812
C         0.64597545280393   -0.01420024685724    0.03296349844936
C        -0.53517111149864   -0.91062455093467    0.17191617885493
N         1.83785044372062   -0.04338368453000   -0.12704369022494
C        -1.45540043628232    0.02996017702464   -0.22476729331747
