3
 energy: -8.831497850047 gnorm: 0.000716106892 xtb: 6.2.2 (9d81278992624c895f80dd42a50cac0aa55982e2)
C        -0.04450565120985    0.43814676478128   -0.00000060934792
O        -1.06941396968204   -0.21501129173642    0.00000410823031
N         1.11391962088665   -0.22313647304486   -0.00000349888064
