4
 energy: -5.015835256971 gnorm: 0.000659026013 xtb: 6.2.2 (9d81278992624c895f80dd42a50cac0aa55982e2)
C        -0.55350001041375    0.20913937952003   -0.21216150715272
C         0.55350273461527   -0.20914185012249    0.46327792986859
H        -1.55223418207700   -0.10224008671079    0.06665962330194
H         1.55223321099000    0.10224343385903    0.18445295397836
