5
 energy: -8.708806881910 gnorm: 0.000898043471 xtb: 6.2.2 (9d81278992624c895f80dd42a50cac0aa55982e2)
C        -1.35548774332568    1.08844986191243    0.15535965493663
C        -0.47979390555181    0.16318568291575    0.02177825033265
C         0.91227304148020   -0.06826295661713   -0.01433672005005
C         2.04844468377072   -0.46053644933328   -0.06245320098385
H        -1.12543607637344   -0.72283613887777   -0.10034798423538
