3
 energy: -8.086351027666 gnorm: 0.000152809246 xtb: 6.2.2 (9d81278992624c895f80dd42a50cac0aa55982e2)
C         0.78688673778973   -0.20313222367341    0.06802704063310
C        -0.31381989495510    0.75217441358284   -0.02882867144679
O        -0.47306584283114   -0.54904218991292   -0.03919736918980
