5
 energy: -10.178269488859 gnorm: 0.000298441708 xtb: 6.2.2 (9d81278992624c895f80dd42a50cac0aa55982e2)
C         0.83123872276820   -0.12854013354490   -0.50862644738520
C         0.51396125774816   -0.30532579511971    0.91713053504334
C        -0.63169845374763   -0.74562111768759    0.10577141488701
C        -0.19953461871739    0.87414097281965    0.40284607350188
C        -0.51396690805133    0.30534607353256   -0.91712157604702
