4
 energy: -8.132038872398 gnorm: 0.000740071230 xtb: 6.2.2 (9d81278992624c895f80dd42a50cac0aa55982e2)
C         1.63379004500744   -0.02881506670502   -0.02734592885118
C         0.41638167161341   -0.00864361477723    0.09657042307722
C        -1.01346272566955    0.63915170511682   -0.02904915222386
C        -1.03670899095653   -0.60169402363458   -0.04017534200043
