5
 energy: -8.716495787571 gnorm: 0.000798026845 xtb: 6.2.2 (9d81278992624c895f80dd42a50cac0aa55982e2)
C         0.59878813658346    0.09034373622023    0.03500329876518
C        -0.42491662633272   -0.16333556471193    0.96045269572604
C        -1.28180771973889   -0.33713473272916   -0.15206159771807
C        -0.46120064297308    0.70173711336851   -0.65158084852211
H         1.56913685246123   -0.29161055214765   -0.19181354825104
