5
 energy: -8.727762815685 gnorm: 0.000498241937 xtb: 6.2.2 (9d81278992624c895f80dd42a50cac0aa55982e2)
C         1.86657988108345   -0.41801142811056    0.01447851557091
C         0.66889846432126    0.04891408960393    0.01046664529798
C        -0.77341679193914   -0.02165380105141   -0.00552846018722
C        -0.29545101799030    1.22146018851531   -0.00576833218102
H        -1.46661153547004   -0.83070804895203   -0.01364836849891
