5
 energy: -10.977607451550 gnorm: 0.000320509944 xtb: 6.2.2 (9d81278992624c895f80dd42a50cac0aa55982e2)
N         0.18646700892350   -0.97547200860979    0.05165576838818
C        -0.73950037176312   -0.07830822245647   -0.70687518948880
C         0.15750062340249    1.03043646455639   -0.05553699049782
C        -0.73559127398964   -0.00225240909613    0.71525246959495
C         1.13112401343549    0.02559717560775   -0.00449505799826
