5
 energy: -8.798609990131 gnorm: 0.000456439627 xtb: 6.2.2 (9d81278992624c895f80dd42a50cac0aa55982e2)
C        -1.29160081475391   -0.00119540341552    0.02520838125366
C        -0.08581956335478    0.04108325787630    0.01757170739745
C         1.27356435848968    0.12221391732596    0.02496218012485
C         2.44443288632951   -0.16584511068938   -0.11379793650232
H        -2.34057686670701    0.00374333890441    0.04605666772642
