4
 energy: -10.158146959731 gnorm: 0.000715294779 xtb: 6.2.2 (9d81278992624c895f80dd42a50cac0aa55982e2)
O        -1.16086435728041   -0.03008921882386    0.00101198942574
C        -0.02733062007095    0.74605542025710   -0.00000809570337
C         1.17683480525279    0.03050782227616   -0.00120522205548
C         0.01136017209857   -0.74647402370941    0.00020132833311
