4
 energy: -8.925350015068 gnorm: 0.000505414224 xtb: 6.2.2 (9d81278992624c895f80dd42a50cac0aa55982e2)
N        -1.02688847716437   -0.03176259174471   -0.05982050044410
C        -0.05273362421548    0.86950907007037    0.18859393036198
C         1.06789793086296    0.05330178533184   -0.14563170513521
C         0.01172417051340   -0.89104826365925    0.01685727521733
