5
 energy: -9.445505592706 gnorm: 0.000531357268 xtb: 6.2.2 (9d81278992624c895f80dd42a50cac0aa55982e2)
C         0.93468325229610   -0.14764886969812   -0.60177887231732
N         0.08148461971916   -0.02966168434243    0.49645697939969
C        -0.36815882502256    0.79233914607421   -0.67169144418318
C        -0.61067228256326   -0.57846810074757   -0.71290939326284
H        -0.03733676442944   -0.03656049128609    1.48992273036366
