5
 energy: -9.541266930278 gnorm: 0.000622605303 xtb: 6.2.2 (9d81278992624c895f80dd42a50cac0aa55982e2)
C         2.02046134149234   -0.22643465263077   -0.03152706555851
C         0.81150727215749   -0.30685484371569   -0.06204574180840
C        -0.56572552814297    0.03548980860630    0.00223795646585
N        -1.58658854154586   -0.61179383801853   -0.17184919489582
H        -0.67965454396101    1.10959352575870    0.26318404579687
