5
 energy: -11.070620005677 gnorm: 0.000511699650 xtb: 6.2.2 (9d81278992624c895f80dd42a50cac0aa55982e2)
C        -1.51873642002318   -0.60126198827526    0.18265730025296
N        -0.30148330220286    0.01502077093247    0.02070186738212
C         0.97533327041354   -0.18321119712467   -0.06933189499547
C        -1.34945956613964    0.82035222935463    0.04156387809519
C         2.19434601794691   -0.05090081488717   -0.17559115073307
