5
 energy: -9.227394683887 gnorm: 0.000990765648 xtb: 6.2.2 (9d81278992624c895f80dd42a50cac0aa55982e2)
C        -0.29463263118469   -0.00632449184726   -0.07854606870336
C         1.10676271437027   -0.02829570755604   -0.53717045342287
O         0.89827453242438    0.04880812514684    0.71150636830176
H        -0.85961575449632    0.91395380684855   -0.10550588433055
H        -0.85078886110841   -0.92814073259209    0.00971603815327
