3
 energy: -5.310818431242 gnorm: 0.000143143475 xtb: 6.2.2 (9d81278992624c895f80dd42a50cac0aa55982e2)
C         1.01811133221461   -0.09730362978217   -0.00000338406319
N        -0.11060979134314    0.38864942642686   -0.00000029221209
H        -0.90750154087147   -0.29134579664469    0.00000367627528
