5
 energy: -10.942060296991 gnorm: 0.000633690451 xtb: 6.2.2 (9d81278992624c895f80dd42a50cac0aa55982e2)
C        -1.24762668639734    0.73983785811412   -0.00704904658028
N         0.02280584495994   -0.00529131102610    0.08588172710504
C         1.34052944512623   -0.06921892219225   -0.70531716955576
C        -1.34259627938878   -0.55401617659096   -0.03348946946829
C         1.22688667569995   -0.11131144829957    0.65997395850279
