3
 energy: -8.031293711615 gnorm: 0.000315620672 xtb: 6.2.2 (9d81278992624c895f80dd42a50cac0aa55982e2)
C         0.76750504013324   -0.12246515443638    0.06615993549712
C        -0.23148886879256    0.74457132893015   -0.02174567168749
O        -0.53601517133719   -0.62210617449726   -0.04441326381313
