3
 energy: -8.123754995319 gnorm: 0.000694247010 xtb: 6.2.2 (9d81278992624c895f80dd42a50cac0aa55982e2)
C        -0.05151137530640   -0.00135574196740    0.00000018217528
C         1.26666824305074    0.00395091726356   -0.00000442841343
O        -1.21515686774434   -0.00259517529617    0.00000424623815
