3
 energy: -9.710074899398 gnorm: 0.000179933428 xtb: 6.2.2 (9d81278992624c895f80dd42a50cac0aa55982e2)
O        -0.55794011588185   -0.66439169495505   -0.03288260973835
N        -0.17486833403917    0.71469642265538   -0.01135189465539
N         0.73280944992451   -0.05030472770382    0.04423550439026
