5
 energy: -11.062693191968 gnorm: 0.000041904735 xtb: 6.2.2 (9d81278992624c895f80dd42a50cac0aa55982e2)
C         0.85424801179118   -0.15335726891330   -0.50174900865946
N         0.33169398356522   -0.62166467124415    0.72087553361609
C        -0.78174888290081   -0.61094848783911   -0.14359803948359
C        -0.05585901433416    0.73311161868106    0.68149760264613
C        -0.34833309812667    0.65285780931027   -0.75702608812091
