5
 energy: -8.590823681734 gnorm: 0.000650428843 xtb: 6.2.2 (9d81278992624c895f80dd42a50cac0aa55982e2)
C         0.55252825316217    0.01692465742284   -0.00476856916019
C        -0.51743438709408    0.05435897555605    0.97459585256133
C        -1.00370767203417   -0.53733277496765   -0.26473075561701
C        -0.54773366575588    0.83267774475455   -0.47407081790681
H         1.51634747172197   -0.36662860276579   -0.23102570987733
