3
 energy: -9.627138998254 gnorm: 0.000352461763 xtb: 6.2.2 (9d81278992624c895f80dd42a50cac0aa55982e2)
O        -0.49447239964638   -0.58881352518113   -0.02914205908353
N        -0.28169302543097    0.74019359934641   -0.01782083154378
N         0.77616642508084   -0.15138007416877    0.04696389062382
