5
 energy: -9.597384129428 gnorm: 0.000743541033 xtb: 6.2.2 (9d81278992624c895f80dd42a50cac0aa55982e2)
C         1.99914452736710   -0.51495540645692    0.11826407342629
N         0.86593018987639   -0.23789786108044    0.05601158706855
C        -0.39865084098200    0.18088337222745   -0.05161939920064
C        -1.24635598996621    1.09954130982866   -0.34857495122288
H        -1.22006688629004   -0.52757041452398    0.22591868992345
