5
 energy: -9.484756540571 gnorm: 0.000734155354 xtb: 6.2.2 (9d81278992624c895f80dd42a50cac0aa55982e2)
C        -1.16248875040632    1.19535466936127    0.36441018948805
N        -0.52734696157026    0.13807657077809    0.03459863123872
C         0.82262726912839   -0.07788615314725   -0.00790858325405
C         1.92291696293611   -0.54974886984238   -0.13999415374411
H        -1.05570852008791   -0.70579621714973   -0.25110608372861
