5
 energy: -7.214240596457 gnorm: 0.000808344327 xtb: 6.2.2 (9d81278992624c895f80dd42a50cac0aa55982e2)
C        -0.00018542886965    0.00525636099618   -0.11101855565561
C         1.20916232564670   -0.13405796632809   -0.44279375229296
C        -1.20940279484909    0.02740240999899    0.24883978849274
H         2.20582112851195   -0.10111813582470   -0.76357960661707
H        -2.20539713796934    0.20251537740798    0.52208812607878
