4
 energy: -10.187327751727 gnorm: 0.000428866594 xtb: 6.2.2 (9d81278992624c895f80dd42a50cac0aa55982e2)
C         1.60565414045635   -0.10113342225377    0.04628350311748
C         0.36967492405493    0.04438601515240    0.01781896498431
C        -0.98391819747093   -0.58415296678534   -0.08940968783796
O        -0.99141186704559    0.64089937389194    0.02530721974141
