4
 energy: -5.772678984978 gnorm: 0.000315698392 xtb: 6.2.2 (9d81278992624c895f80dd42a50cac0aa55982e2)
C        -0.08071611430846    0.00539955647532    0.30252317977932
N         1.21816518202415   -0.09655534175178   -0.06326702395940
H        -0.49765080998592    0.94030160575982   -0.11663505798468
H        -0.63979825773501   -0.84914682048336   -0.12262109783350
