5
 energy: -9.726630452542 gnorm: 0.000280433473 xtb: 6.2.2 (9d81278992624c895f80dd42a50cac0aa55982e2)
N         2.42593126740969    0.09690160652336    0.07949720167955
C         1.27940505853886    0.05061894689293    0.04180484038369
C        -1.28640243499955   -0.05154592927164   -0.04199384761882
C        -0.08408541876022   -0.00395456473211   -0.00320065868763
H        -2.33484847219232   -0.09202005941433   -0.07610853575667
