5
 energy: -10.247511260595 gnorm: 0.000251940499 xtb: 6.2.2 (9d81278992624c895f80dd42a50cac0aa55982e2)
C        -0.04770181975130   -0.94184314647735    0.00347272327082
C        -0.51963849947020    0.02980305510765    0.96473284376501
C         0.04746990621329    0.94185539890570   -0.00345707258112
C        -0.57457934689391    0.02559730471593   -0.93317886905718
C         1.09444875990560   -0.05541261224496   -0.03156862539404
