5
 energy: -8.070212495187 gnorm: 0.000902281878 xtb: 6.2.2 (9d81278992624c895f80dd42a50cac0aa55982e2)
N         0.75340581937428   -0.01622393259878    0.02045400426483
C        -0.54322541918733    0.01287376291215   -0.01353483563218
C         1.93789549883500   -0.04463851607812    0.05291662759036
H        -1.10091072802231   -0.87276755377269    0.23498866565239
H        -1.04716617099440    0.92075723954266   -0.29482446187365
