4
 energy: -8.124584562956 gnorm: 0.000273721859 xtb: 6.2.2 (9d81278992624c895f80dd42a50cac0aa55982e2)
C         1.61057724083474   -0.02847426109114   -0.06196436887817
C         0.36057032281041   -0.00777380366294    0.13731710007254
C        -0.97386695838207    0.66761926390404   -0.03169137493779
C        -0.99728060526832   -0.63137219914996   -0.04366135625483
