5
 energy: -8.716496179146 gnorm: 0.000258647076 xtb: 6.2.2 (9d81278992624c895f80dd42a50cac0aa55982e2)
C         0.62684337074461   -0.80113909982357    0.30656681592586
C         0.31896860117281    0.44122826309029   -0.26705898110830
C        -0.88603202826057   -0.22157701230918   -0.54316041654522
C        -0.72895114550277   -0.86610050599248    0.70682422548429
H         0.66917020184593    1.44758835504017   -0.20317164375314
