5
 energy: -9.157861059472 gnorm: 0.000903783937 xtb: 6.2.2 (9d81278992624c895f80dd42a50cac0aa55982e2)
C        -0.46360138713022    0.19017192935349    0.06563909274438
C         0.93011353949307    0.22575785808809    0.01850788279062
O        -0.99790345264267   -0.89268982171116   -0.18089302197611
H        -1.03168335497206    1.09100724409296    0.31251547243540
H         1.56307565525539   -0.61424720982688   -0.21576842599778
