4
 energy: -9.099402677640 gnorm: 0.000477942543 xtb: 6.2.2 (9d81278992624c895f80dd42a50cac0aa55982e2)
C         1.87246240962300    0.03264052164484   -0.03052905845203
C         0.66820550677778    0.01008813153761   -0.01785947359137
C        -0.69785283244849   -0.01054983101052    0.01307495168661
N        -1.84281608394881   -0.03217882216495    0.03531458036029
