5
 energy: -7.955659569266 gnorm: 0.000306148451 xtb: 6.2.2 (9d81278992624c895f80dd42a50cac0aa55982e2)
C         1.04293861573981    0.03283125049319    0.65713644588242
N        -0.33571999071097    0.00156831468272   -0.00413167659327
C         1.05843336152951   -0.04264813656564   -0.63128309190056
H        -0.88742140331544   -0.84820174672214    0.03901514482070
H        -0.87823058324640    0.85645031811011   -0.06073782220929
