5
 energy: -8.574591085600 gnorm: 0.000145574062 xtb: 6.2.2 (9d81278992624c895f80dd42a50cac0aa55982e2)
C        -0.48108328412426    0.79141018829778   -0.64565235329407
C         0.02486417313156   -0.01598878607900    0.50865431100652
C         0.85654336359550    0.02547178346043   -0.73524885132107
C        -0.47685368371028   -0.75166575199165   -0.69464808578825
H         0.07652943110225   -0.04922843368757    1.56689497939862
