5
 energy: -9.600286789858 gnorm: 0.000824073813 xtb: 6.2.2 (9d81278992624c895f80dd42a50cac0aa55982e2)
C         1.87772872157604   -0.38879325970306    0.09437454253115
C         0.72748129171446    0.09823232627816    0.00548134712664
C        -0.73482275763067   -0.04041127128709   -0.01239151706139
N        -0.39582545222357    1.13064882029298   -0.14958696165778
H        -1.47456080344150   -0.79967761558622    0.06212258905965
