5
 energy: -10.201460034713 gnorm: 0.000817238236 xtb: 6.2.2 (9d81278992624c895f80dd42a50cac0aa55982e2)
C        -1.24404453869935   -0.47452741058937   -0.11352224344589
C         0.01601680072552   -0.73544535986588    0.49292793258650
C         0.64672401687419    0.82706378313662   -0.13646048088384
C         1.26802477197083   -0.41003070436016   -0.09899014140522
C        -0.68672005086769    0.79293969167530   -0.14395406685504
