5
 energy: -10.228044355014 gnorm: 0.000393638036 xtb: 6.2.2 (9d81278992624c895f80dd42a50cac0aa55982e2)
C         1.79243379227594   -0.00415726638475    0.02641627001086
C         0.52346493360324   -0.00520750888227    0.02388209284468
C        -1.14007233522670   -0.12867241169826    0.37258853746074
C        -0.58439625441025   -0.93674428490778   -0.54822535488057
C        -0.59143013624049    1.07478247187132    0.12533745456255
