5
 energy: -11.038945170813 gnorm: 0.000458572463 xtb: 6.2.2 (9d81278992624c895f80dd42a50cac0aa55982e2)
N        -1.04531703659492    0.79190326266201    0.03808197769403
C         0.26078713582302    0.80857359810433    0.05533478992198
C         0.42605160672027   -1.02260594447216   -0.06067503034595
C         1.33531026413800   -0.04560517482415    0.01506648618202
C        -0.97683197009160   -0.53226674147003   -0.04780822345034
