5
 energy: -11.036963747438 gnorm: 0.000386031912 xtb: 6.2.2 (9d81278992624c895f80dd42a50cac0aa55982e2)
N         1.26868843327627   -0.01316066379301    0.00333214092517
C         0.22518741490777   -0.71844199767361   -0.46401201973619
C        -0.86994135335543   -0.21426790800995    0.67379487388429
C        -0.86155668336606    0.23236252162993   -0.67846528622041
C         0.23762118853920    0.71350904785013    0.46534929114888
