5
 energy: -8.020208053122 gnorm: 0.000138917998 xtb: 6.2.2 (9d81278992624c895f80dd42a50cac0aa55982e2)
C        -0.32770171813001   -0.00424618735081   -0.07735145577682
N         1.07397614776326    0.05818381934590    0.67887405490549
C         1.03039132019658   -0.06908140226502   -0.54886011566431
H        -0.89897440165645   -0.90915749667352    0.06907421690134
H        -0.87769134817512    0.92430026694521   -0.12173570036395
