3
 energy: -8.750311996147 gnorm: 0.000445146302 xtb: 6.2.2 (9d81278992624c895f80dd42a50cac0aa55982e2)
C         0.78921247386218   -0.13552865235849    0.03820399318602
O        -0.26897064869113    0.74023270956321   -0.01343128731830
N        -0.52024182517105   -0.60470405720472   -0.02477270586771
