4
 energy: -9.066215317438 gnorm: 0.000723985837 xtb: 6.2.2 (9d81278992624c895f80dd42a50cac0aa55982e2)
C        -1.82430785080951   -0.03115967764134   -0.04339267911272
N        -0.66103696304023   -0.00794381539387   -0.01968609403497
C         0.64270165772604    0.03047965543813   -0.00109555627739
C         1.84264315612721    0.00862383759882    0.06417532942508
