5
 energy: -10.180650477479 gnorm: 0.000111503145 xtb: 6.2.2 (9d81278992624c895f80dd42a50cac0aa55982e2)
C        -0.74910895558509   -0.79471659132863    0.22152770401502
C        -0.13599089519675    0.37515490032107    0.90978362350785
C         0.77005476708706    0.73695947634319   -0.21555636772562
C        -0.59482743601112    0.38866673908936   -0.63763701993573
C         0.70987370278915   -0.70606493288848    0.06081106013765
