5
 energy: -9.547123373163 gnorm: 0.000302714427 xtb: 6.2.2 (9d81278992624c895f80dd42a50cac0aa55982e2)
N         1.12101340646525   -0.19918503962790    0.06445521920714
C        -0.09705669247723   -0.09861455873359    0.06346790282162
C        -1.38976500435821   -0.64097141595397    0.44886621054120
C        -1.41027656130958    0.49505208234758   -0.22662687720898
H         1.77608485167628    0.44371893196613   -0.35016345536098
