3
 energy: -9.844933799146 gnorm: 0.000810983825 xtb: 6.2.2 (9d81278992624c895f80dd42a50cac0aa55982e2)
N         0.01495955101022   -0.00016785345966   -0.00000005192586
N         1.12031313471265    0.01549580461899   -0.00000393768581
O        -1.13527368572287   -0.01532795115410    0.00000398961516
