5
 energy: -8.808330286257 gnorm: 0.000770015905 xtb: 6.2.2 (9d81278992624c895f80dd42a50cac0aa55982e2)
C        -0.38495961443910   -0.11823848787590   -0.01310078951834
N         0.89861382353523   -0.31043021514003    0.08473638280681
N        -1.02505141544642    0.97205973360734   -0.08004189325502
H        -0.98098501050442   -1.04907286338304    0.02531964342485
H         1.49238221684598    0.50568083278989   -0.01691434345656
