5
 energy: -7.222786185475 gnorm: 0.000587500785 xtb: 6.2.2 (9d81278992624c895f80dd42a50cac0aa55982e2)
C        -0.00984222525368    0.01044195848122   -0.00236910528423
C         1.12262205253604   -0.55027608747784    0.04067308188958
C        -1.30160118032761    0.03284729673882    0.07137265305950
H        -1.96961202784993    0.85997998256712   -0.04944095577913
H         2.15843438089692   -0.35299215031629   -0.06023667389096
