4
 energy: -8.122483945238 gnorm: 0.000241328737 xtb: 6.2.2 (9d81278992624c895f80dd42a50cac0aa55982e2)
C        -0.20538228748882    0.56022720013199    0.76782584731684
C        -0.16475305874065   -0.65222934375078   -0.70217444152145
C        -0.09250405247839    0.74551102500190   -0.61745656133805
C         0.46263939870438   -0.65350888138486    0.55180415554265
