5
 energy: -7.802453971420 gnorm: 0.000308980876 xtb: 6.2.2 (9d81278992624c895f80dd42a50cac0aa55982e2)
C         0.97784611345108    0.04067192085131    0.78512738915507
N        -0.27741037246495    0.00129581519259   -0.00341638479700
C         0.99644618912639   -0.04989521288864   -0.76083895762406
H        -0.85300045446172   -0.84171190612644    0.03905072149954
H        -0.84388147565429    0.84963938296942   -0.05992376823354
