5
 energy: -8.714389178474 gnorm: 0.000186410981 xtb: 6.2.2 (9d81278992624c895f80dd42a50cac0aa55982e2)
C        -0.70599548363297   -0.03579994038048    0.07397803057287
C         0.37153623246492   -0.84473056833068   -0.02147629277022
C         1.62649707314461    0.07259770730611   -0.16984528746737
C         0.46940774089966    0.78308240219706   -0.06223358565883
H        -1.76144556287622    0.02485039920799    0.17957713532356
