5
 energy: -9.227394626931 gnorm: 0.000635274384 xtb: 6.2.2 (9d81278992624c895f80dd42a50cac0aa55982e2)
C        -0.03088114868025   -0.30085940152860    0.03966130536899
C         0.89444358362289    0.83059071723670   -0.15757392038984
O        -0.34754156493608    1.08773689631512   -0.11610737967431
H        -0.20367535001014   -0.69376263399502    1.03145933144027
H        -0.31234551998769   -0.92370457802645   -0.79743833674685
