5
 energy: -9.094383544892 gnorm: 0.000369899010 xtb: 6.2.2 (9d81278992624c895f80dd42a50cac0aa55982e2)
O         0.01602777822677   -0.00042520354142    0.50646473171764
C        -1.24225235406744    0.07929845068845    0.27889481550937
C         1.06930342456845   -0.07455069816915   -0.21915837150727
H        -1.81917212589025    0.12414019680626    1.20564902282360
H         1.97610081617031   -0.12845897632956    0.38791080144022
