5
 energy: -8.827106742210 gnorm: 0.000108274606 xtb: 6.2.2 (9d81278992624c895f80dd42a50cac0aa55982e2)
N        -0.59651596128286    0.39829816415430    0.37170253537952
C        -0.58787869220445   -0.90743018034519   -0.01628020878238
N         0.62545535377306   -0.39222646179822    0.32929437229629
H        -0.77439664380441    1.13331106283778   -0.30473817530548
H         1.33333594352214   -0.23195258484692   -0.37997752358795
