5
 energy: -11.069186618720 gnorm: 0.000899314294 xtb: 6.2.2 (9d81278992624c895f80dd42a50cac0aa55982e2)
N         1.09834309912194    0.25106476303483    0.86881044062887
C        -0.00776417979688    0.02636274035219    0.11806392178978
C        -1.09159205607290   -0.26824534466693   -0.93580323027396
C         1.41126408178960   -0.00041330043536   -0.36821487879540
C        -1.41025094504698   -0.00876985828472    0.31714374665246
