5
 energy: -11.131102059979 gnorm: 0.000273716001 xtb: 6.2.2 (9d81278992624c895f80dd42a50cac0aa55982e2)
N        -2.48496548813708   -0.02420750315221   -0.11957726991655
C        -1.31329681329216   -0.01058753945513   -0.06443429525573
C         1.28552521786621    0.01126759426338    0.06042920741412
C        -0.01045276368212    0.00386120055612    0.00099235696495
C         2.52318884723643    0.01966524779134    0.12258900079845
