5
 energy: -8.968724613405 gnorm: 0.000704322001 xtb: 6.2.2 (9d81278992624c895f80dd42a50cac0aa55982e2)
C        -0.00127121109797   -0.01085955646167   -0.05203792475229
N        -1.16723903214818   -0.30347079382494   -0.11501116691645
N         1.15489394765554    0.21594217440765   -0.29882955307490
H        -1.95594278148480    0.17530883961119    0.26682812122187
H         1.96955907708064   -0.07691966373223    0.19905052352003
