5
 energy: -10.982730257727 gnorm: 0.000301961621 xtb: 6.2.2 (9d81278992624c895f80dd42a50cac0aa55982e2)
C         0.02532755275251   -1.04516634985312    0.14692352201376
N        -0.79535927784976    0.01871878240714    0.63908203650723
C         0.15145536775229    1.01605202207676    0.24351560084372
C        -0.43575671456344    0.06406676813031   -0.79807014245001
C         1.05433307190840   -0.05367122276109   -0.23145101691470
