5
 energy: -10.178581734258 gnorm: 0.000620550842 xtb: 6.2.2 (9d81278992624c895f80dd42a50cac0aa55982e2)
C         1.77617797749007   -0.20983065181195   -0.11154929918704
C         0.52399682603978   -0.06189310751192   -0.03252229969237
C        -1.20519620053747    0.14240110309217    0.07712516499648
C        -0.41410670798266    1.20460017335749    0.01304859503490
C        -0.68087189501321   -1.07527751712754    0.05389683884803
