5
 energy: -11.049274181428 gnorm: 0.000886861644 xtb: 6.2.2 (9d81278992624c895f80dd42a50cac0aa55982e2)
C        -1.37845497645864    0.39764624841796   -0.03478755803140
N        -0.56219890881306   -0.10793951120951    0.87465359423572
C         0.60808390927263   -0.05476030576450    0.07496920823028
C        -0.51933696093248   -0.41733919271897   -0.79985193723120
C         1.85190693694028    0.18239376127677   -0.11498230720514
