5
 energy: -9.537905572065 gnorm: 0.000314936662 xtb: 6.2.2 (9d81278992624c895f80dd42a50cac0aa55982e2)
C         1.00767852207351   -0.38734162016146   -0.32179321380035
C         0.07138000294582   -1.03863348461803    0.49026939032952
C        -0.94523415922026   -0.52153896808385   -0.32175703503250
N        -0.03604802327159    0.52458197860558   -0.15049094066387
H        -0.09777534252749    1.42293209425252    0.30377179916371
