5
 energy: -11.062693058029 gnorm: 0.000475504320 xtb: 6.2.2 (9d81278992624c895f80dd42a50cac0aa55982e2)
N        -0.94318412680120   -0.12672523394803   -0.33226298835911
C        -0.13501962311648    0.99221684760463   -0.04605782080731
C         0.33220754864757   -0.49803305469951   -0.80401695148325
C         0.99031265953262    0.13302519887665    0.34887165312797
C        -0.24431545826251   -0.50048375783898    0.83346610751821
