3
 energy: -6.801517554735 gnorm: 0.000785581397 xtb: 6.2.2 (9d81278992624c895f80dd42a50cac0aa55982e2)
C         0.71757814176287   -0.28961406936898    0.07040650909097
N        -0.71197378014167   -0.48737868511802   -0.06835706622467
C        -0.00560436162120    0.77699275448700   -0.00204944286630
