3
 energy: -6.378280846960 gnorm: 0.000513285515 xtb: 6.2.2 (9d81278992624c895f80dd42a50cac0aa55982e2)
O         1.00980133104341   -0.18852625593888   -0.00000319584389
C        -0.10405542443357    0.48867057794568   -0.00000048965922
H        -0.90574590660983   -0.30014432200680    0.00000368550311
