5
 energy: -10.178269610823 gnorm: 0.000423042012 xtb: 6.2.2 (9d81278992624c895f80dd42a50cac0aa55982e2)
C        -0.29346732442498    0.72524807832813    0.59502165226016
C        -0.65982921804815   -0.48977650118300   -0.53997551503516
C         0.13102511056458    0.72031114126330   -0.81353242403781
C         0.95318787090003   -0.23530193011419   -0.05491530215629
C        -0.13091543899671   -0.72048178829948    0.81340158896735
