5
 energy: -11.010160762959 gnorm: 0.000831342958 xtb: 6.2.2 (9d81278992624c895f80dd42a50cac0aa55982e2)
C        -0.50053530090446    0.94630671398798   -0.00375793894819
C         0.65484472450013   -0.03166187792585    0.03226206561794
C        -0.58708625550360   -0.89363736019586   -0.05279018604377
C         1.90935095337370   -0.09245031437239    0.09886589512929
N        -1.47657512146927    0.07144283850961   -0.07458083575179
