5
 energy: -11.094314659637 gnorm: 0.000483782701 xtb: 6.2.2 (9d81278992624c895f80dd42a50cac0aa55982e2)
C        -0.49568817882248    0.79547762890633   -0.01621121298737
C         0.75175211008724   -0.01690210588730    0.00711789563356
C        -0.53123665341992   -0.77234733447778    0.00493764181017
N         1.93890870511262   -0.04370498186406    0.02081338053618
C        -1.66373598295746    0.03747679332281   -0.01665770499254
