5
 energy: -10.983024088547 gnorm: 0.000962401476 xtb: 6.2.2 (9d81278992624c895f80dd42a50cac0aa55982e2)
C        -0.45793772248623    0.94768793796696   -0.06938488166405
N         0.62964564313452   -0.02521024549564   -0.00925715383981
C        -0.53155349786536   -0.91096775159394   -0.01518167908298
C         1.85005039312616   -0.07421339135870   -0.03252611752711
C        -1.49020481590560    0.06270345048307    0.12635083211394
