4
 energy: -8.924085494145 gnorm: 0.000847520836 xtb: 6.2.2 (9d81278992624c895f80dd42a50cac0aa55982e2)
C        -1.81192010198299   -0.03938135508097   -0.12693860460480
N        -0.60173753497686   -0.01704161595144    0.18243281128003
C         0.57825173021100    0.08206740652342   -0.21977462280275
C         1.83540590675235   -0.02564443548926    0.16428141612753
