5
 energy: -9.166492723732 gnorm: 0.000666655512 xtb: 6.2.2 (9d81278992624c895f80dd42a50cac0aa55982e2)
O        -0.02321964410589    0.00017887964630    0.32237432676920
C        -1.20438076698620   -0.24060241666002    0.41611506440698
C         1.09217898091063    0.24348716629887   -0.07516839949877
H        -1.79636033295258    0.29504508107974    1.15083430681977
H         1.93178930214188   -0.29810494091031    0.34560570148638
