5
 energy: -11.038943393205 gnorm: 0.000792291408 xtb: 6.2.2 (9d81278992624c895f80dd42a50cac0aa55982e2)
C        -0.63005893082328    0.57516087514919   -0.01323296517339
N         0.51359750625868    1.20693531898869    0.02491816699564
C         0.13975102411789   -1.10171529213864   -0.00702249528092
C         1.11212290276579    0.02141161298896    0.02919711970792
C        -1.13541250231908   -0.70179251498819   -0.03385982624925
