5
 energy: -10.958231091610 gnorm: 0.000687872375 xtb: 6.2.2 (9d81278992624c895f80dd42a50cac0aa55982e2)
N        -0.93579950465138   -0.82546921233785    0.00549888896228
C        -0.10858940592092   -0.10330846954797    0.85418500086952
C        -0.12169211529328   -0.09982265736212   -0.85283336369793
C         0.05356255410114    1.11458286546894    0.00179637037570
C         1.11251747176794   -0.08598252621403   -0.00864589650608
