5
 energy: -9.584861120970 gnorm: 0.000629052020 xtb: 6.2.2 (9d81278992624c895f80dd42a50cac0aa55982e2)
C         0.54218146556928    0.04433191580987   -0.03208285408203
C        -0.44514103957931    0.97202154742218   -0.30582113310158
C        -1.18957633809977   -0.06828645570139    0.35873506269559
N        -0.42043464630808   -0.85833614662957   -0.40593197388068
H         1.51297055842138   -0.08973086089935    0.38510189836870
