3
 energy: -9.590982803582 gnorm: 0.000696061040 xtb: 6.2.2 (9d81278992624c895f80dd42a50cac0aa55982e2)
O        -0.00136044564797    0.34770745242767   -0.00000060210877
N         1.11532375708510   -0.16949184065004   -0.00000359740858
N        -1.11396331143714   -0.17821561177764    0.00000419951735
