5
 energy: -11.070878169095 gnorm: 0.000448427673 xtb: 6.2.2 (9d81278992624c895f80dd42a50cac0aa55982e2)
C         1.01660026793722   -0.07278564855287    0.38438713320650
C         0.17875317955194    0.93315972490175   -0.20930660200168
C        -0.93776583050996    0.09305019533402   -0.54570689609059
N        -0.40005107289384   -0.10323046274392    0.82165014586406
C         0.14246345590939   -0.85019480893898   -0.45102378097654
