5
 energy: -7.105979298781 gnorm: 0.000219209618 xtb: 6.2.2 (9d81278992624c895f80dd42a50cac0aa55982e2)
C        -0.00410852718188   -0.23685779506408    0.01405496004017
C         0.79315301710089    0.97542191871489   -0.06587316488367
C        -0.75882998160318    1.00319441115444   -0.05153914486058
H        -0.00604997711716   -0.81877831531068    0.93232261669423
H        -0.02416353120390   -0.92298121949981   -0.82896526699189
