3
 energy: -8.745430981011 gnorm: 0.000209763475 xtb: 6.2.2 (9d81278992624c895f80dd42a50cac0aa55982e2)
O        -0.01582585448327    0.38700047233077   -0.00000062019337
N        -1.12772231067450   -0.20773511878749    0.00000429906616
C         1.14354716516301   -0.17926435353805   -0.00000367887104
