5
 energy: -9.539704150093 gnorm: 0.000703576415 xtb: 6.2.2 (9d81278992624c895f80dd42a50cac0aa55982e2)
N        -0.79254889778487    0.23970988969680    0.19994258548927
C         0.38449498003964   -0.41674471969305    0.63253676349203
C         1.55335187404189   -0.04736602590799   -0.04781919223996
C         0.37753663583013    0.53730404669247   -0.53889062533634
H        -1.52283459212330   -0.31290319078649   -0.24576853140500
