5
 energy: -7.222307651284 gnorm: 0.000551544196 xtb: 6.2.2 (9d81278992624c895f80dd42a50cac0aa55982e2)
C         0.76111448460922   -0.15179688048349    0.08110482644686
C        -0.54835037907722    0.05404222812789    0.05509429414069
C         1.99768984858557   -0.20001680457070   -0.19365604502008
H        -1.22652317761688   -0.67317144982289   -0.37078667181560
H        -0.98392977649719    0.97094290674570    0.42824459624463
