5
 energy: -10.328734569029 gnorm: 0.000599239228 xtb: 6.2.2 (9d81278992624c895f80dd42a50cac0aa55982e2)
C        -1.25243508385039    0.28406159001231    0.06029994245066
C        -0.00013552107972    0.00000529181037   -0.00167501917031
C         1.25261658900429   -0.28360081412094   -0.06220865156347
C        -2.49508780363278    0.56476518504546    0.12569117185514
C         2.49504281955333   -0.56523225275247   -0.12210744357366
