5
 energy: -8.902090818436 gnorm: 0.000836452855 xtb: 6.2.2 (9d81278992624c895f80dd42a50cac0aa55982e2)
N         0.06729385404846   -0.02550569552518    0.12088220647047
C        -1.03758005479856   -0.42663346864613    0.08453322947123
N         1.27799746208087    0.04442802373074    0.14632867622163
H        -1.98673374675667   -0.21506217001856   -0.32015404669773
H         1.67902564520617    0.62277489032858    0.87361793452751
