5
 energy: -11.197756609987 gnorm: 0.000124359461 xtb: 6.2.2 (9d81278992624c895f80dd42a50cac0aa55982e2)
C         0.09959203645211    0.08395961293751   -0.40592407703324
O         0.93473962462115   -0.34205394013738    0.55246076225873
O        -1.10996761894980    0.19432981855036    0.16174167443809
H         1.82260260514670   -0.43631782083241    0.18691176981455
H        -1.74696764727541    0.50008132948715   -0.49519012947290
