5
 energy: -8.688496214952 gnorm: 0.000169588584 xtb: 6.2.2 (9d81278992624c895f80dd42a50cac0aa55982e2)
C         0.00560534384914    0.04686650951538   -0.00145686882129
N        -1.11451223691749    0.75415954517825   -0.10440822764184
N         1.26155461681334    0.47527618529695    0.06623784411327
H        -0.13540622603259   -0.60379686581723    0.89861769925111
H        -0.01724149771239   -0.67250537417335   -0.85899044690125
