5
 energy: -9.227395191837 gnorm: 0.000135629440 xtb: 6.2.2 (9d81278992624c895f80dd42a50cac0aa55982e2)
O         0.79661081385132   -0.51067354159579    0.64871020578856
C        -0.28052758593594    0.08997902746318   -0.07977663241357
C         1.15534057700382    0.07935623248141   -0.41585793904327
H        -0.95236032788497   -0.61291531425322   -0.55014801202430
H        -0.71906347703947    0.95425259590441    0.39707237769432
