5
 energy: -8.827750541131 gnorm: 0.000286678187 xtb: 6.2.2 (9d81278992624c895f80dd42a50cac0aa55982e2)
N        -0.31406002626366    0.00053215795766   -0.03594455660821
C         1.08489348776370   -0.10751895205783   -0.58700226333677
N         0.95013145221746    0.08104321613179    0.66495629758315
H        -0.84461120286936    0.86155434451982   -0.14710457576338
H        -0.87635271084815   -0.83561076655667    0.10509509812172
