5
 energy: -8.714388964757 gnorm: 0.000355913992 xtb: 6.2.2 (9d81278992624c895f80dd42a50cac0aa55982e2)
C         0.70871573087672    0.04948498278279   -0.01435654586656
C        -0.45562221684566   -0.73239643196053    0.30358074131018
C        -0.38995000463710    0.77028716353851   -0.32792477599433
C        -1.63369224093899   -0.10719221388808    0.02983960955888
H         1.77054873154503    0.01981649952730    0.00886097099184
