5
 energy: -9.118724827192 gnorm: 0.000631472160 xtb: 6.2.2 (9d81278992624c895f80dd42a50cac0aa55982e2)
C        -0.05401906321181   -0.47325033451852   -0.46393085065676
C         1.06623191532291   -0.61085650716372    0.17960668921363
O        -1.11573898145695    0.27692102284817   -0.07971734144400
H         1.41213159589337   -0.15235232735044    1.10006490639764
H        -1.30860546654753    0.95953814618451   -0.73602340351050
