5
 energy: -8.827749169138 gnorm: 0.001012025608 xtb: 6.2.2 (9d81278992624c895f80dd42a50cac0aa55982e2)
N        -0.00741561622680   -0.31554485988194    0.01858420465958
C         0.72843000326951    0.99912712026045   -0.05220924416317
N        -0.54415779159036    1.02533214988061   -0.06573450421897
H        -0.09649323504234   -0.80379609234078    0.90666426197295
H        -0.08036336041176   -0.90511931791660   -0.80730371824865
