5
 energy: -11.044544676053 gnorm: 0.000375559931 xtb: 6.2.2 (9d81278992624c895f80dd42a50cac0aa55982e2)
C        -1.46832939218749    0.73454844908407   -0.12608540283201
C        -0.17710413541211   -0.01704943135588   -0.19472746158826
N         1.01352103941222   -0.05373657781907   -0.57926292752947
C        -1.56977440799709   -0.54834888017186   -0.31784332289082
C         2.20167886875318   -0.11541607340430   -0.79528788514236
