5
 energy: -8.798605593788 gnorm: 0.000945220497 xtb: 6.2.2 (9d81278992624c895f80dd42a50cac0aa55982e2)
C         1.28639526049568   -0.11512085403982    0.04530923475999
C         0.08200609964644   -0.05191653665072    0.01351775565676
C        -2.41889704249527    0.38878129010466   -0.14238453157290
C        -1.27905886904804   -0.00375827464722   -0.00819383840898
H         2.32955455140123   -0.21798562476695    0.09175137956505
