5
 energy: -6.390946889898 gnorm: 0.000140398737 xtb: 6.2.2 (9d81278992624c895f80dd42a50cac0aa55982e2)
C         0.80242538521813   -0.17149796599330    0.32541956952226
N        -0.45764676777851    0.08234555815203   -0.13286793084323
H         1.66765716359198   -0.06408074700461   -0.30336643691000
H        -0.93226801071418    0.87442969487831    0.29468186456935
H        -1.08016777031742   -0.72119654003242   -0.18386706633838
