5
 energy: -10.982729321187 gnorm: 0.000827772373 xtb: 6.2.2 (9d81278992624c895f80dd42a50cac0aa55982e2)
N         0.61000020028299   -0.78047754976285    0.24321289755755
C         0.04974915398979   -0.03629368593659   -0.90920294234949
C        -0.65659673583915    0.82545277959285    0.23539305882924
C         0.81021914801741    0.63601406711268    0.23415362959791
C        -0.81337276645104   -0.64469561100087    0.19644335636828
