5
 energy: -11.088051295839 gnorm: 0.000895215249 xtb: 6.2.2 (9d81278992624c895f80dd42a50cac0aa55982e2)
N        -1.07054403998576    0.79075753286923   -0.04795849298790
C         0.25024376577310    0.77376241647504    0.01827295322309
C         0.37203255410439   -0.96551788125694   -0.32256753308608
C         1.30818661176273   -0.08549710431954    0.20587224355070
C        -0.85991889165969   -0.51350596376779    0.14638082930193
