5
 energy: -11.035856824168 gnorm: 0.000472636006 xtb: 6.2.2 (9d81278992624c895f80dd42a50cac0aa55982e2)
N        -1.51570083332080    0.33978655759463   -0.69381647047432
C        -0.23999728627855   -0.17812401314841    0.06044783146077
C         1.04102150574756    0.08915684988915    0.24834473936369
C        -1.49807829613802   -0.69986109138758    0.05142302164107
C         2.21275390998981    0.44904169705744    0.33360087801229
