4
 energy: -8.122483816624 gnorm: 0.000260031836 xtb: 6.2.2 (9d81278992624c895f80dd42a50cac0aa55982e2)
C        -0.96425984761838   -0.02588880537809    0.12062192673948
C        -0.00930076768698    0.95514418834413   -0.18160505696678
C         0.93469621724905    0.02031162884089    0.26635964029142
C         0.03886439805282   -0.94956701180867   -0.20537751006412
