5
 energy: -10.982730239459 gnorm: 0.000325472911 xtb: 6.2.2 (9d81278992624c895f80dd42a50cac0aa55982e2)
C         0.98900465511916    0.11016239537271   -0.35272390428350
N         0.34123043758488   -0.78168468092437    0.56019485814692
C        -0.95924954134058   -0.43481112761667    0.07374801309767
C        -0.04091562421843    0.64738462091932    0.63993307348005
C        -0.33006892715027    0.45894779224377   -0.92115204044288
