5
 energy: -11.030301649617 gnorm: 0.000559433951 xtb: 6.2.2 (9d81278992624c895f80dd42a50cac0aa55982e2)
C         1.23373427274169   -0.02161183823777   -0.00799949890806
N         0.13654821340052    0.83466813021841   -0.04085161172278
C        -0.75758829085596   -0.01179736082745   -0.79882807626367
C        -0.74430367881658    0.06413980633821    0.80829796399299
C         0.13160848353383   -0.86539873748442    0.03938222290502
