5
 energy: -11.070876360587 gnorm: 0.000992713385 xtb: 6.2.2 (9d81278992624c895f80dd42a50cac0aa55982e2)
N        -0.68892702579087   -0.60925853813592    0.00404725206098
C         0.28287100463154    0.24230513138153    0.89801878721245
C         0.26912429783523    0.24590761472896   -0.90125825886584
C        -0.64910224987741    0.87512652462819    0.00670987500970
C         0.78603297320500   -0.75408073259576   -0.00751665541380
