5
 energy: -8.661534638989 gnorm: 0.000667807366 xtb: 6.2.2 (9d81278992624c895f80dd42a50cac0aa55982e2)
C        -1.37683836341004    0.21783364232825   -0.26004436320696
C        -0.07095196459462    0.16664908224821   -0.27072552823390
C         1.13506867737349   -0.11814836132488    0.10740992751004
C         2.43186829383064   -0.09512750749006    0.00828804187564
H        -2.11914664319601   -0.17120685575980    0.41507292205524
