5
 energy: -9.541266899307 gnorm: 0.000363343056 xtb: 6.2.2 (9d81278992624c895f80dd42a50cac0aa55982e2)
C        -0.13133246341993   -1.91082747256035   -0.68122676754850
C         0.03754620980587    0.54158124287719    0.16309257660974
C        -0.04551868933434   -0.71646877682338   -0.49171987709323
N         0.12729140570483    1.68587375604552   -0.25470643377774
H         0.01201253724357    0.39984125046626    1.26456050181322
