3
 energy: -6.933750040399 gnorm: 0.000207152166 xtb: 6.2.2 (9d81278992624c895f80dd42a50cac0aa55982e2)
N         0.00000989248631   -0.00292630114763    0.00000000507277
C         1.22670719908944    0.00528604592762   -0.00000429125292
C        -1.22671609157052   -0.00235874478522    0.00000428617491
