5
 energy: -11.096033826981 gnorm: 0.000569597084 xtb: 6.2.2 (9d81278992624c895f80dd42a50cac0aa55982e2)
C        -2.46333507666961   -0.16015333682854   -0.02397926166345
N        -1.26757246045242   -0.08098555864122   -0.00528039687955
C         1.26201471724305    0.07375668226309    0.01806634916295
C        -0.02981756914416    0.01426779347375   -0.00601160789802
C         2.49871038902312    0.15311441973294    0.01720491727807
