4
 energy: -5.957097919013 gnorm: 0.000022424321 xtb: 6.2.2 (9d81278992624c895f80dd42a50cac0aa55982e2)
C         0.00252569574007   -0.00020095300673    0.00002082865326
N         1.21188143698023   -0.09637784911287    0.03289499331337
H        -0.53507995537870    0.95622992747235   -0.01342059006585
H        -0.67932717734683   -0.85965212535275   -0.01949523189904
