3
 energy: -10.308452201566 gnorm: 0.000465383723 xtb: 6.2.2 (9d81278992624c895f80dd42a50cac0aa55982e2)
C        -0.00000010408347    0.00002600049486   -0.00000000004502
O         1.14350956862788    0.00085966926556   -0.00000399311224
O        -1.14350946454442   -0.00088566976042    0.00000399315726
