5
 energy: -7.864905359340 gnorm: 0.000222373640 xtb: 6.2.2 (9d81278992624c895f80dd42a50cac0aa55982e2)
C        -0.24055359344113   -0.00399782613244   -0.06524622176308
N         0.95384409990314    0.06794912580600    0.75928727058178
C         1.02998581521574   -0.08294342164798   -0.68207310412453
H        -0.88197255435408   -0.88075830981361    0.08666667134415
H        -0.86130376732541    0.89974943178976   -0.09863361603657
