5
 energy: -7.852050242257 gnorm: 0.000652249051 xtb: 6.2.2 (9d81278992624c895f80dd42a50cac0aa55982e2)
C         0.73135565663483   -0.17865821949074    0.57690355618295
N        -0.58935971477259   -0.04934198968200    0.23447059081187
C         1.71795613873823    0.06022966634085   -0.39486722122496
H        -0.95066596582459   -0.72569319633643   -0.43529557100701
H        -0.90928611477588    0.89346373916832    0.01878864523714
