5
 energy: -11.043323779172 gnorm: 0.000991864405 xtb: 6.2.2 (9d81278992624c895f80dd42a50cac0aa55982e2)
C         1.92195351607009   -0.27124826865224   -0.01886308415744
N         0.71935059357589   -0.09994583671782   -0.07186219038720
C        -1.63735859651773    0.22748736857233    0.16900030736877
C        -0.39347728216919    0.83921317535087   -0.02109918895218
C        -0.61046823095906   -0.69550643855315   -0.05717584387194
