5
 energy: -10.199165794009 gnorm: 0.000448651422 xtb: 6.2.2 (9d81278992624c895f80dd42a50cac0aa55982e2)
C        -0.52795508896448    0.84500040154732    0.15732859749488
C         0.68083524607614   -0.00747470314739    0.03431321633545
C        -0.54391009856408   -0.84284646445003    0.10627028930270
C         1.94822837007583   -0.01671919454741   -0.05586592429436
C        -1.55719842862691    0.02203996059576   -0.24204717883867
