5
 energy: -9.518090822912 gnorm: 0.000594671271 xtb: 6.2.2 (9d81278992624c895f80dd42a50cac0aa55982e2)
N        -1.06642594238673   -0.44003940465171   -0.18171948514061
C        -0.02590481959785    0.45738872309016   -0.14631410799004
C         1.14684872443223   -0.47220283943955   -0.19102618298916
C         0.02476171020277   -1.03679957393776    0.38826700185508
H        -0.07927967265392    1.49165309493712    0.13079177426473
