3
 energy: -2.967481477409 gnorm: 0.000096802515 xtb: 6.2.2 (9d81278992624c895f80dd42a50cac0aa55982e2)
C        -0.00041109725059    0.43900892939290   -0.00000076477210
H         0.88202550229774   -0.21867821484904   -0.00000269719639
H        -0.88161440504191   -0.22032971454386    0.00000346196675
