5
 energy: -10.243021641851 gnorm: 0.000788109757 xtb: 6.2.2 (9d81278992624c895f80dd42a50cac0aa55982e2)
C        -1.46716940303340   -0.82615196721664    0.04267828282149
C        -0.25934612673490   -0.03343389674657    0.04035704712820
C         1.02507695765339    0.13258015648123   -0.15783134303915
C        -1.56906109504470    0.44364950804763    0.42504836327102
C         2.27049966715612    0.28335619943261   -0.35025335018156
