5
 energy: -8.645667183564 gnorm: 0.000506035268 xtb: 6.2.2 (9d81278992624c895f80dd42a50cac0aa55982e2)
C         1.11007199307888   -0.32595574203113    0.01986083619566
C        -0.17901419231860   -0.08972617191409    0.00429344070577
C        -1.39543501733620    0.73719874516078   -0.04037107493374
C        -1.51629109011593   -0.61364953796431    0.02491505200465
H         1.98066830669184    0.29213270674875   -0.00869825397234
