5
 energy: -10.977606916554 gnorm: 0.000796391129 xtb: 6.2.2 (9d81278992624c895f80dd42a50cac0aa55982e2)
C         1.02212982471664   -0.27707828042697    0.39768504188501
N         0.56298775396634    0.33234004636936   -0.74932585493935
C        -0.70509563548433   -0.44559325969127   -0.59703761340560
C        -0.27162621057424   -0.43435342966469    0.90882849489143
C        -0.60839573262441    0.82468492341357    0.03984993156851
