5
 energy: -7.826525185632 gnorm: 0.000194433540 xtb: 6.2.2 (9d81278992624c895f80dd42a50cac0aa55982e2)
C        -0.05706174449518    0.00512095881680    0.00198295667573
N        -1.15409347332920    0.76374519449575    0.01438611540276
C         1.29399296724773    0.57320430665706   -0.07182536136156
H        -0.00756181861215   -0.63654761731117    0.91290423203408
H        -0.07527493080595   -0.70552184266368   -0.85744794275624
