5
 energy: -7.936942382792 gnorm: 0.000753238638 xtb: 6.2.2 (9d81278992624c895f80dd42a50cac0aa55982e2)
C        -0.44783586755426   -0.07451873290887    0.00843566051042
N        -1.10445150559873    1.00991501024832    0.04654376525203
C         0.88854616150077   -0.29750804005668   -0.02709851303948
H        -1.07422015520914   -0.98914546688835   -0.00002397329478
H         1.73796136686484    0.35125722960732   -0.02785593942819
