5
 energy: -11.003502805191 gnorm: 0.000214069747 xtb: 6.2.2 (9d81278992624c895f80dd42a50cac0aa55982e2)
N         1.14689830530583   -0.24846208716343    0.76504761587665
C         0.01429143661769   -0.00877840847519    0.01764901547468
C        -1.13809772169776   -0.66487293476385   -0.64977566160001
C         1.39219116248599    0.54253466588249   -0.23810696400835
C        -1.41528318271699    0.37957776451998    0.10518599425878
