5
 energy: -11.011981903506 gnorm: 0.000674303870 xtb: 6.2.2 (9d81278992624c895f80dd42a50cac0aa55982e2)
C        -1.57730982139858   -0.48070831123696    0.23202756500439
N        -0.25013000354963   -0.10430653829662   -0.12694402215884
C         0.99804074353020   -0.25838441256336   -0.07187318669994
C        -1.39237301631132    0.80888827074832    0.10789885771045
C         2.22177209772410    0.03450999134862   -0.14110921385432
