5
 energy: -10.247511142328 gnorm: 0.000502068512 xtb: 6.2.2 (9d81278992624c895f80dd42a50cac0aa55982e2)
C        -0.32718555297320    0.80874856748806    0.66354108682022
C        -0.73522277415372   -0.54620783511627   -0.60209299080250
C         0.11285012281438    0.62071319689847   -0.70090265600366
C         1.06240838416810   -0.26253589667403   -0.06144870023280
C        -0.11284917986080   -0.62071903260146    0.70090326021700
