3
 energy: -9.024303713672 gnorm: 0.000320861178 xtb: 6.2.2 (9d81278992624c895f80dd42a50cac0aa55982e2)
C        -0.01264304094759    0.00012606284771    0.00000004391264
O        -1.17483367597866   -0.00038596320244    0.00000410162752
N         1.18747671692101    0.00025890035473   -0.00000414553841
