5
 energy: -11.076205230575 gnorm: 0.000858733334 xtb: 6.2.2 (9d81278992624c895f80dd42a50cac0aa55982e2)
N        -1.55091118500543   -0.08178905425541   -0.07281439459372
C        -0.57302010295682    0.79051890026082    0.14864771760287
C         0.69398285362675    0.03740618323764    0.05270554313597
C        -0.49054979208981   -0.83034955026624    0.21271688208113
C         1.92049822642531    0.08421352102320   -0.34125574822626
