5
 energy: -11.002389898767 gnorm: 0.000964922059 xtb: 6.2.2 (9d81278992624c895f80dd42a50cac0aa55982e2)
C         1.89401854265416   -0.17181104845877   -0.06193890277734
C         0.62666737512946   -0.10544635171509   -0.02439904016033
C        -1.48548794191541    0.21574797324742    0.05446055255454
N        -0.40738334690306    0.94036593260046    0.04350531173804
C        -0.62781462896515   -0.87885650567402   -0.01162792135491
