5
 energy: -5.497792424662 gnorm: 0.000655748316 xtb: 6.2.2 (9d81278992624c895f80dd42a50cac0aa55982e2)
C        -0.54567260348240   -0.03432455710212    0.23517352900848
C         0.87937568422312   -0.28527334810138    0.38899515755549
H        -0.86233195252390    1.00624737892488    0.24569838981658
H        -1.07470290017482   -0.64999613490113   -0.48886715376685
H         1.60333177196149   -0.03665333881850   -0.38099892261370
