5
 energy: -8.806810333081 gnorm: 0.000957793944 xtb: 6.2.2 (9d81278992624c895f80dd42a50cac0aa55982e2)
C         0.03858373517181   -0.51556348457346   -0.06668485975621
N        -1.23372411429432   -0.41094108299717   -0.07158835203685
N         0.96575561687664    0.36846063287632    0.08045098521477
H        -1.69821518663690    0.48843003702329    0.09591526922232
H         1.92759994888801    0.06961489767103   -0.03809304264578
