5
 energy: -11.151411160810 gnorm: 0.000764720081 xtb: 6.2.2 (9d81278992624c895f80dd42a50cac0aa55982e2)
N         1.97428375568282    0.97812096610658    0.36093811249934
C         0.95221356331508    0.49006896612104    0.15624399027079
C        -1.42664483048066   -0.24464398205092   -0.74487927710244
C        -1.23761276504784   -1.13247292510926    0.31419788456374
C        -0.26223972346939   -0.09107302506745   -0.08650071023143
