4
 energy: -5.946140777699 gnorm: 0.000922775950 xtb: 6.2.2 (9d81278992624c895f80dd42a50cac0aa55982e2)
C         0.56275692996059    0.39101895415845    0.02601921930251
N        -0.64364380987976    0.35978199931952   -0.06086799457744
H         1.37211459304178   -0.31918405884030    0.11250656197551
H        -1.29122771312261   -0.43161689463767   -0.07765778670058
