5
 energy: -8.648021955263 gnorm: 0.000606247078 xtb: 6.2.2 (9d81278992624c895f80dd42a50cac0aa55982e2)
C         0.63883100599142   -0.01007918389041    0.10369188077370
C        -0.44130489279822   -0.90992798472014   -0.09286838684054
C        -1.47317437383114    0.02136804366060    0.15879020838238
C        -0.41377908116246    0.92359632115004   -0.08421344870566
H         1.68942634179517   -0.02495819619486   -0.08540025360464
