5
 energy: -11.088056166143 gnorm: 0.000436443693 xtb: 6.2.2 (9d81278992624c895f80dd42a50cac0aa55982e2)
N        -1.26954787452289   -0.39841118936197   -0.01251464495224
C        -0.02044319541647   -0.79316676915603    0.16115114492659
C         0.67531941810494    0.71725325777574   -0.43712470449393
C         1.26215053455403   -0.31108934015612    0.28711017373098
C        -0.64747988272484    0.78541304090362    0.00137803079384
