5
 energy: -10.964104577627 gnorm: 0.000516541058 xtb: 6.2.2 (9d81278992624c895f80dd42a50cac0aa55982e2)
C         0.09429164327234    0.96245570446450    0.63413018904892
N        -0.10625889744872    0.19658279421423   -0.67412949262889
C        -0.04116016103567   -1.06074649267346    0.19374731132096
C        -1.00143118074591   -0.00958169168738    0.54836398140789
C         1.05456202247760   -0.08870860108050    0.27951101084364
