5
 energy: -8.008881643674 gnorm: 0.000236548971 xtb: 6.2.2 (9d81278992624c895f80dd42a50cac0aa55982e2)
N        -0.57113707730397   -0.43725172823165    0.21669513159016
C         0.57151282310623    0.31553091249918    0.07875311385754
C        -0.55335825024486    1.02465452332519    0.35842274293973
H        -1.03018429664622   -0.99865352129378   -0.48862833901060
H         1.58316680108881    0.09571981370107   -0.16524264937683
