5
 energy: -7.955659639340 gnorm: 0.000058923355 xtb: 6.2.2 (9d81278992624c895f80dd42a50cac0aa55982e2)
N        -0.01039870568883    0.33328282645424    0.03989558024084
C         0.67753911531330   -1.02386460867324   -0.11659530554004
C        -0.61245360942076   -1.06213541023657   -0.13310908554777
H        -0.01951094574316    0.97804940194625   -0.74256678963224
H        -0.03517485446055    0.77466779050409    0.95237560047571
