3
 energy: -7.288195731704 gnorm: 0.000005903005 xtb: 6.2.2 (9d81278992624c895f80dd42a50cac0aa55982e2)
O        -0.15383572560074    0.39699941483026   -0.00000015589805
N         1.02719718316087   -0.13753294850770   -0.00000334556621
H        -0.87336145756013   -0.25946646632256    0.00000350146425
