5
 energy: -5.584891184746 gnorm: 0.000609127281 xtb: 6.2.2 (9d81278992624c895f80dd42a50cac0aa55982e2)
C        -0.05730309734535   -0.00582789489885   -0.00087856242975
C         1.37889592104519    0.14024291522980    0.02114634556134
H        -0.35829170724384   -0.74022631382713   -0.75731729235905
H        -0.53822597295141    0.95058686150158   -0.23777250465280
H        -0.42507514349586   -0.34477456800365    0.97482301387852
