3
 energy: -6.595155121619 gnorm: 0.000169072394 xtb: 6.2.2 (9d81278992624c895f80dd42a50cac0aa55982e2)
O         1.04446470008320   -0.10561806790427   -0.00000346154276
C        -0.05056482603501    0.33405660601059   -0.00000040652766
H        -0.99389987404818   -0.22843853810633    0.00000386807042
