5
 energy: -10.328733899475 gnorm: 0.000645119692 xtb: 6.2.2 (9d81278992624c895f80dd42a50cac0aa55982e2)
C        -2.47627361231529   -0.56015479545159    0.33827091440964
C         0.00064476708288   -0.00395353993166   -0.00163473179311
C         1.24287450366594    0.28261311393055   -0.16799082924550
C        -1.24250680738568   -0.28500288980501    0.16692185817176
C         2.47526114894866    0.56649811125601   -0.33556821154278
