5
 energy: -9.549488043267 gnorm: 0.000494979551 xtb: 6.2.2 (9d81278992624c895f80dd42a50cac0aa55982e2)
C        -1.16417591807251    1.12128721457592    0.36988397089931
C        -0.56269379052417    0.02028674461777    0.04242822302189
C         0.84824565264308   -0.06402548674981   -0.07529556790087
N         1.98460427343097   -0.16437543588202   -0.17831850185922
H        -1.10597921748260   -0.91317403656710   -0.15869812416286
