5
 energy: -11.151410472054 gnorm: 0.000789999511 xtb: 6.2.2 (9d81278992624c895f80dd42a50cac0aa55982e2)
C        -1.46760289041775    0.87412078216209   -0.03144680988466
C        -0.28905501517211   -0.02305039518663   -0.00306157798967
C         1.07483685461568   -0.12783326217206    0.01346208235946
C        -1.54141903170269   -0.51860431874027   -0.00550323254757
N         2.22324008267512   -0.20463380606139    0.02655053806418
