5
 energy: -10.174003496858 gnorm: 0.000099882875 xtb: 6.2.2 (9d81278992624c895f80dd42a50cac0aa55982e2)
C         1.25778985222455   -0.00085894544994   -0.00726129479424
C         0.19187561461449    0.90287108365280    0.02838642140986
C        -0.82342584094612    0.18049203801174   -0.71080579659271
C        -0.81665320481059   -0.17938969488573    0.71922663711637
C         0.19041357891767   -0.90311448132887   -0.02954596713928
