3
 energy: -7.316376638321 gnorm: 0.000197262133 xtb: 6.2.2 (9d81278992624c895f80dd42a50cac0aa55982e2)
O         1.03834557180351   -0.12212627188733   -0.00000341137097
N        -0.09759724474242    0.34425294405010   -0.00000026014890
H        -0.94074832706110   -0.22212667216277    0.00000367151986
