5
 energy: -9.278696669918 gnorm: 0.000423473187 xtb: 6.2.2 (9d81278992624c895f80dd42a50cac0aa55982e2)
C         0.02517426000060   -0.13281272070847    0.11509177513125
C        -1.07337440149740    0.29140090341077   -0.09414591728831
O         1.20441272285080   -0.62610051326276    0.37555696039042
H        -2.04298631831703    0.64454739241449   -0.26086017055405
H         1.88677273696304   -0.17703506184877   -0.13564264767578
