5
 energy: -11.070878402439 gnorm: 0.000088055368 xtb: 6.2.2 (9d81278992624c895f80dd42a50cac0aa55982e2)
C         0.10245695733824    0.79633020767714    0.74546783574656
N        -0.10873490777821    0.20115715479208   -0.69442443084459
C        -0.01500382990843   -0.95812343740735    0.36357426220441
C        -1.06485564419212    0.02171009412571    0.42414156519905
C         1.08614085106016   -0.06107230595018    0.14286376768708
