5
 energy: -9.491222637616 gnorm: 0.000385376484 xtb: 6.2.2 (9d81278992624c895f80dd42a50cac0aa55982e2)
C         0.50384500818158    0.03181828985945    0.02283776143750
C        -0.84195340224858    0.05881891611401    0.76243431233872
C        -0.73989305650765   -0.79665782013304   -0.33406681198161
N        -0.47520625787333    0.71444645962536   -0.60250379355284
H         1.55320870844798   -0.00842584547102    0.15129853175474
