5
 energy: -9.654444293809 gnorm: 0.000383601874 xtb: 6.2.2 (9d81278992624c895f80dd42a50cac0aa55982e2)
N         1.29941919753802   -0.12960770519765    0.13199709870541
C         0.12560495032395   -0.00854553852585    0.01271008973005
C        -1.17456032086073   -0.02168464866403    0.04406468102862
C        -2.43394719298306    0.00046242981960    0.02781108524671
H         2.18348336597831    0.15937546256619   -0.21658395471079
