5
 energy: -11.011981447634 gnorm: 0.000533406215 xtb: 6.2.2 (9d81278992624c895f80dd42a50cac0aa55982e2)
C        -1.57305527555969   -0.54409713131184    0.00610842977314
N        -0.23594897609360   -0.08021280045400   -0.16895859667912
C         1.00830719036474   -0.22471279477556   -0.04023396752841
C        -1.42082440473686    0.74788270808444    0.15099103477293
C         2.22152146603065    0.10114101845695    0.05209309965972
