5
 energy: -11.026083053120 gnorm: 0.000912099212 xtb: 6.2.2 (9d81278992624c895f80dd42a50cac0aa55982e2)
N         1.68418819365712   -0.73828673881422   -0.10916333599225
C         0.58211032802898   -0.25578229937231   -0.11535518704436
C        -1.29449134738733    0.57001492246205    0.41040430435628
C        -0.11516288465083    1.05875066982454   -0.09957220691962
C        -0.85664528964793   -0.63469655409482   -0.08631357439655
