5
 energy: -8.020208060584 gnorm: 0.000086795064 xtb: 6.2.2 (9d81278992624c895f80dd42a50cac0aa55982e2)
C         0.04101602010730   -0.33414963346744    0.01144989278090
N        -0.55938699267100    1.14214005316517   -0.02310283635157
C         0.66184085774512    0.96209100962649   -0.06279793337603
H        -0.03653096856097   -0.84918115693126    0.95761822013507
H        -0.10693791661522   -0.92089927239818   -0.88316734319360
