5
 energy: -11.070877595270 gnorm: 0.000831217655 xtb: 6.2.2 (9d81278992624c895f80dd42a50cac0aa55982e2)
C        -0.85364540337705    0.66479489970762    0.12188916942060
N         0.15848713381754    0.24011713975053   -0.87377792097996
C         0.82301386724941   -0.71157871487613    0.04882855086324
C        -0.61366988056369   -0.75164084105623    0.07062110646600
C         0.48581428286856    0.55830651647422    0.63243909423186
