5
 energy: -11.183185675142 gnorm: 0.000958172270 xtb: 6.2.2 (9d81278992624c895f80dd42a50cac0aa55982e2)
N        -2.49106468592778   -0.02520098226881   -0.12024633666728
C        -1.33002408129101   -0.01685408575203   -0.06333927425639
C         1.26344719725970    0.01734118805732    0.06080952026110
C        -0.00148032559716   -0.00323872239752   -0.00024512885049
C         2.55912089554753    0.02795160236455    0.12302021951830
