3
 energy: -10.067745404366 gnorm: 0.000481556750 xtb: 6.2.2 (9d81278992624c895f80dd42a50cac0aa55982e2)
C        -0.23874404798753    0.66959698480620   -0.01423116667564
O        -0.56661286481639   -0.58020506607130   -0.03144047976839
O         0.80535691280392   -0.08939191873490    0.04567164644403
