5
 energy: -9.550898530329 gnorm: 0.000349751091 xtb: 6.2.2 (9d81278992624c895f80dd42a50cac0aa55982e2)
C         2.07723469929016   -0.57632986743196    0.86894633537468
N         1.03165538656353   -0.38253663602232    0.28714838238014
C        -0.09205831172837    0.21301437298267    0.24262536303267
C        -1.21642744096063    0.49717336572898   -0.26948646358915
H        -1.80040433316469    0.24867876474263   -1.12923361719835
