5
 energy: -9.638881035078 gnorm: 0.000724013894 xtb: 6.2.2 (9d81278992624c895f80dd42a50cac0aa55982e2)
C         1.19649440720971   -0.34384111110191   -0.02236316335932
N         0.07594734651862   -0.02670243603204   -0.00179279016726
C        -1.13478318531976    0.33838774344950    0.02102232996689
C        -2.33196203477722    0.68968980593858    0.04308888654226
H         2.19430446636865   -0.65753400225934   -0.03995526298605
