5
 energy: -10.183167401092 gnorm: 0.000905808189 xtb: 6.2.2 (9d81278992624c895f80dd42a50cac0aa55982e2)
C        -0.24933136562043   -1.11637927826501    0.04320050954653
C        -0.97091595567763    0.05547008388430   -0.00489394953424
C         0.65510127252655   -0.21353946160217    0.73222825089114
C        -0.12278260437932    1.13883236609541   -0.05329632424313
C         0.68792965315607    0.13561728988223   -0.71723848666555
