5
 energy: -10.923658719213 gnorm: 0.000141391057 xtb: 6.2.2 (9d81278992624c895f80dd42a50cac0aa55982e2)
C        -1.34382029339225    0.53996002178262   -0.00899071460601
N         0.05741569635440    0.08633580939617   -0.31469501870338
C         1.31490877164675   -0.58318579749844    0.16648234664517
C        -1.22089176317525   -0.70530438236688   -0.32986959316104
C         1.19238758856111    0.66219334868653    0.48707297982701
