5
 energy: -11.291508900756 gnorm: 0.000381557154 xtb: 6.2.2 (9d81278992624c895f80dd42a50cac0aa55982e2)
C         0.13060977392685    1.32744024795760   -0.15365609439274
O         1.26413440349258    1.20681496651716   -0.24462031368151
O        -1.00277493116893    1.45075157279315   -0.06299139889962
H        -0.16073319674627   -1.95142888645645    0.61543700020216
H        -0.23123604949901   -2.03357690081145   -0.15416919323004
