4
 energy: -6.561225035984 gnorm: 0.000094631896 xtb: 6.2.2 (9d81278992624c895f80dd42a50cac0aa55982e2)
C        -0.00084627638063    0.01469089608276   -0.00046964097198
C        -1.17582077348194   -0.62655478990056    0.01922085602230
C         1.24105467028285   -0.48492551218683    0.01335908979802
H        -0.06438862042028    1.09678940600986   -0.03211030484485
