5
 energy: -10.169944697671 gnorm: 0.000371409311 xtb: 6.2.2 (9d81278992624c895f80dd42a50cac0aa55982e2)
C         0.11814615603303   -0.91629801167363   -0.00141007354769
C        -0.76077024995012    0.04128673016312    0.76599671055515
C         0.20989949917944    0.89968259887439   -0.00804618349778
C        -0.80383527152890    0.03793171073338   -0.72088293627228
C         1.23655886627004   -0.06260302809027   -0.03565651723391
