3
 energy: -3.808925499009 gnorm: 0.000018883470 xtb: 6.2.2 (9d81278992624c895f80dd42a50cac0aa55982e2)
N        -0.00149840763922    0.38852740325517   -0.00000067287070
H        -0.82921870084568   -0.19746458306644    0.00000323916399
H         0.83071710848490   -0.19106282018873   -0.00000256629329
