5
 energy: -11.151412442521 gnorm: 0.000410329191 xtb: 6.2.2 (9d81278992624c895f80dd42a50cac0aa55982e2)
N        -1.92282591027448    1.13443491183242   -0.03670779882277
C        -0.93754271792130    0.54066081653245    0.00619593594301
C         1.15178077179931   -0.95495812242373    0.63847872536128
C         0.23574782520957   -0.16124374730118    0.05205849801236
C         1.47284003118691   -0.55889385863994   -0.66002536049388
