3
 energy: -6.888410989811 gnorm: 0.000398950903 xtb: 6.2.2 (9d81278992624c895f80dd42a50cac0aa55982e2)
C        -0.02880240712473   -0.00050067557631    0.00000010141347
N        -1.22064862204120   -0.00331784388579    0.00000426666932
C         1.24945102916594    0.00381851946210   -0.00000436808278
