5
 energy: -5.662475335924 gnorm: 0.000431231807 xtb: 6.2.2 (9d81278992624c895f80dd42a50cac0aa55982e2)
C        -0.44099373926329    0.11386822378984    0.05257262581887
C         0.84188382626711    0.08511232431615    0.16090389851991
H        -1.05168393152081    0.81902073969285    0.59957340732170
H        -1.02040966124445   -0.55619974053196   -0.59003785305254
H         1.67120350576493   -0.46180154726514   -0.22301107860794
