5
 energy: -10.247511315267 gnorm: 0.000104797186 xtb: 6.2.2 (9d81278992624c895f80dd42a50cac0aa55982e2)
C         0.94277036913485    0.01848348614664   -0.01526684039136
C         0.01938256963559   -0.08603366092363    1.09277980943940
C        -0.94277087694996   -0.01848485094819    0.01526556209631
C         0.00765220980272   -0.90332387186269   -0.62120313942710
C        -0.02703327162320    0.98935889758263   -0.47157539172073
