5
 energy: -11.076205533632 gnorm: 0.000459760373 xtb: 6.2.2 (9d81278992624c895f80dd42a50cac0aa55982e2)
C        -0.51464943678097    0.83445284158171    0.11862061754219
C         0.67801546371673   -0.03607911219192    0.15707055372168
C        -0.59095130348370   -0.78761693541318    0.07539677140003
C         1.95065725926894   -0.09056307396239   -0.04481858421410
N        -1.52307298272450    0.07980627998927   -0.30627035844631
