5
 energy: -8.789769139607 gnorm: 0.000306039523 xtb: 6.2.2 (9d81278992624c895f80dd42a50cac0aa55982e2)
N        -0.40376464211262    0.33753959161731    0.10010935164480
C         0.66386863856824   -0.40094782533973    0.30492683329824
N        -0.89163274020794   -0.76018886376929   -0.21815421026421
H        -0.80568064052484    1.26383874179912    0.26390360409841
H         1.43720938427542   -0.44024264430567   -0.45078457877550
