3
 energy: -2.938303568253 gnorm: 0.000168583264 xtb: 6.2.2 (9d81278992624c895f80dd42a50cac0aa55982e2)
C        -0.00025356482948    0.27077731506700   -0.00000047170551
H         0.98119776834222   -0.13446945033574   -0.00000319034429
H        -0.98094420350750   -0.13630686473126    0.00000366204806
