5
 energy: -10.273377012081 gnorm: 0.000536609338 xtb: 6.2.2 (9d81278992624c895f80dd42a50cac0aa55982e2)
C        -2.54466609275267   -0.01983630040559    0.00034252245958
C        -1.29503080102870   -0.00783868107257   -0.00062062977551
C         1.29525661698589    0.00955417361814   -0.00016345851823
C        -0.00010163911771    0.00259926210506   -0.00015426910816
C         2.54454091591318    0.01552154576020    0.00059583494579
