5
 energy: -9.518123064530 gnorm: 0.000683288686 xtb: 6.2.2 (9d81278992624c895f80dd42a50cac0aa55982e2)
C         1.92221467714583   -0.47026208097249    0.10056619661897
N         0.80268163273310   -0.16105050990173    0.02796284340239
C        -0.53896799184616    0.11359267969695   -0.02241192623269
C        -1.02350953887205    1.23853149688711   -0.43225135721226
H        -1.16241777915549   -0.72081058571507    0.32613424341836
