5
 energy: -9.638884761493 gnorm: 0.000709779623 xtb: 6.2.2 (9d81278992624c895f80dd42a50cac0aa55982e2)
C        -1.19343174785081    0.26912895890724    0.40411813828772
N        -0.07794767189281    0.01499466097942    0.18552653300788
C         1.13557556055261   -0.25133759439912   -0.05115755425785
C         2.33261417543035   -0.51620273289250   -0.28254921666942
H        -2.19680730372160    0.48341921364150    0.60708109962336
