3
 energy: -10.729942453343 gnorm: 0.000159729398 xtb: 6.2.2 (9d81278992624c895f80dd42a50cac0aa55982e2)
N        -0.00209421795041    0.43867410006289   -0.00000075831250
O        -1.08596272405421   -0.22452537334655    0.00000418260154
O         1.08805694200461   -0.21414872671635   -0.00000342428904
