5
 energy: -11.089675707735 gnorm: 0.000311592674 xtb: 6.2.2 (9d81278992624c895f80dd42a50cac0aa55982e2)
C        -0.02085711836498    0.00059038142208   -0.00044790676684
O         0.79554344212221    0.07007571228584   -1.01658350230579
O         0.74595856946682   -0.11367254848698    1.04969823785581
H        -0.78298199659473   -0.83817728138378   -0.09332604556671
H        -0.73766289662408    0.88118473616285    0.06065921678179
