5
 energy: -10.247510429440 gnorm: 0.000655447256 xtb: 6.2.2 (9d81278992624c895f80dd42a50cac0aa55982e2)
C         0.92666456979131   -0.14326739167208   -0.56700742234761
C         0.44309210307817   -0.26323468774975    0.79066855945461
C        -0.70422790168325   -0.83120021765312    0.11792530825334
C        -0.22243017953700    0.97446858072683    0.44907811848272
C        -0.44309859164922    0.26323371634812   -0.79066456384306
