4
 energy: -9.054669517927 gnorm: 0.000576843498 xtb: 6.2.2 (9d81278992624c895f80dd42a50cac0aa55982e2)
O         0.63295729444230   -0.03328669948442    0.32079464390760
O        -0.63296113816063    0.03307187471166   -0.32080837368654
H         1.24114059680879    0.00240030441394   -0.42797955373497
H        -1.24113575308523   -0.00218447964642    0.42799328350867
