4
 energy: -8.979183591670 gnorm: 0.000260649668 xtb: 6.2.2 (9d81278992624c895f80dd42a50cac0aa55982e2)
C        -0.57877495816734   -0.49236728326164   -0.06818830260053
C        -0.72313307673709    0.93937912914367   -0.17268574518207
C         0.61124660852922    0.45017591305364    0.07596802506332
N         0.69066042637520   -0.89718775893043    0.16490602272276
