4
 energy: -8.979181931653 gnorm: 0.000639820064 xtb: 6.2.2 (9d81278992624c895f80dd42a50cac0aa55982e2)
N        -1.14257188817928   -0.04603045676752    0.04335059543553
C        -0.05437769120159    0.75635514289694    0.08065188279192
C         1.19572354923229    0.04927825565773   -0.05676265973008
C         0.00122603014509   -0.75960294178891   -0.06724081849737
