5
 energy: -9.600287703748 gnorm: 0.000318449827 xtb: 6.2.2 (9d81278992624c895f80dd42a50cac0aa55982e2)
C         1.84829100665644   -0.50105814659747   -0.15074500169014
C         0.59990290399074   -0.40689991061579   -0.11875579266726
C        -0.63179719538274    0.36125561203074    0.10594848844773
N        -0.88085672960545   -0.79448091233921   -0.22202865391297
H        -0.93553998565899    1.34118335752173    0.38558095982263
